                                   MODFLOW 6
                U.S. GEOLOGICAL SURVEY MODULAR HYDROLOGIC MODEL
                          GROUNDWATER FLOW MODEL (GWF)
                  VERSION 6.6.0.dev0 (preliminary) 10/18/2024
                               ***DEVELOP MODE***

   MODFLOW 6 compiled Oct 18 2024 02:59:03 with Intel(R) Fortran Intel(R) 64
   Compiler Classic for applications running on Intel(R) 64, Version 2021.7.0
                             Build 20220726_000000

This software is preliminary or provisional and is subject to 
revision. It is being provided to meet the need for timely best 
science. The software has not received final approval by the U.S. 
Geological Survey (USGS). No warranty, expressed or implied, is made 
by the USGS or the U.S. Government as to the functionality of the 
software and related material nor shall the fact of release 
constitute any such warranty. The software is provided on the 
condition that neither the USGS nor the U.S. Government shall be held 
liable for any damages resulting from the authorized or unauthorized 
use of the software.


As a work of the United States Government, this USGS product is 
in the public domain within the United States. You can copy, 
modify, distribute, and perform the work, even for commercial 
purposes, all without asking permission. Additionally, USGS 
waives copyright and related rights in the work worldwide 
through CC0 1.0 Universal Public Domain Dedication 
(https://creativecommons.org/publicdomain/zero/1.0/).

The following GNU Lesser General Public License (LGPL) libraries
are used in this USGS product:

    SPARSKIT version 2.0
      ilut, luson, and qsplit 
      (https://www-users.cse.umn.edu/~saad/software/SPARSKIT/)

    RCM - Reverse Cuthill McKee Ordering
      (https://people.math.sc.edu/Burkardt/f_src/rcm/rcm.html)

    BLAS - Basic Linear Algebra Subprograms Level 1
      (https://people.math.sc.edu/Burkardt/f_src/blas1_d/blas1_d.html)

    SPARSEKIT - Sparse Matrix Utility Package
      amux, dperm, dvperm, rperm, and cperm
      (https://people.sc.fsu.edu/~jburkardt/f77_src/sparsekit/sparsekit.html)

The following BSD-3 License libraries are used in this USGS product:

    Modern Fortran DAG Library
      Copyright (c) 2018, Jacob Williams
      All rights reserved.
      (https://github.com/jacobwilliams/daglib)

MODFLOW 6 compiler options: -Isrc/libmf6core.a.p -Isrc -I../src
-Isrc/libmf6_external.a.p -D_FILE_OFFSET_BITS=64 -warn general -warn
truncated_source -stand=f08 -g -traceback -O2 -fpe0 -no-heap-arrays
-traceback -diag-disable:7416 -diag-disable:7025 -diag-disable:5268 -fPIC
-module src/libmf6core.a.p
-gen-dep=src/libmf6core.a.p/Utilities_compilerversion.F90.o
-gen-depformat=make -o src/libmf6core.a.p/Utilities_compilerversion.F90.o -c

System command used to initiate simulation:
/users/1/souce015/.local/share/flopy/bin/mf6

MODFLOW was compiled using uniform precision.

Real Variables
  KIND: 8
  TINY (smallest non-zero value):    2.225074-308
  HUGE (largest value):    1.797693+308
  PRECISION: 15
  SIZE IN BITS: 64

Integer Variables
  KIND: 4
  HUGE (largest value): 2147483647
  SIZE IN BITS: 32

Long Integer Variables
  KIND: 8
  HUGE (largest value): 9223372036854775807
  SIZE IN BITS: 64

Logical Variables
  KIND: 4
  SIZE IN BITS: 32
 
 NAMEFILE OPTIONS:
    FLOWS WILL BE SAVED TO BUDGET FILE SPECIFIED IN OUTPUT CONTROL
 END NAMEFILE OPTIONS:

 DIS -- STRUCTURED GRID DISCRETIZATION PACKAGE, VERSION 2 : 3/27/2014 - INPUT READ FROM MEMPATH: __INPUT__/EPM_WSGRID/DIS                          


 NPF -- NODE PROPERTY FLOW PACKAGE, VERSION 1, 3/30/2015 INPUT READ FROM MEMPATH: __INPUT__/EPM_WSGRID/NPF                          


 IC -- Initial Conditions Package, Version 8, 3/28/2015 input read from mempath: __INPUT__/EPM_WSGRID/IC                           


 Setting Discretization Options
 End Setting Discretization Options

 Setting Discretization Dimensions
    NLAY = 1
    NROW = 100
    NCOL = 100
 End Setting Discretization Dimensions

 Setting Discretization Griddata
    DELR set from input file
    DELC set from input file
    TOP set from input file
    BOTM set from input file
    IDOMAIN set from input file
 End Setting Discretization Griddata


 The specified IDOMAIN results in a reduced number of cells.
 Number of user nodes: 10000
 Number of nodes in solution: 6338


 Setting NPF Options
    Specific discharge will be calculated at cell centers and written to DATA-SPDIS in budget file when requested.
 End Setting NPF Options

 Setting NPF Griddata
    ICELLTYPE set from input file
    K set from input file
    K33 not provided.  Setting K33 = K.
    K22 not provided.  Setting K22 = K.
 End Setting NPF Griddata


 RCH   -- RCH PACKAGE, VERSION 8, 2/22/2014 INPUT READ FROM MEMPATH: __INPUT__/EPM_WSGRID/RCHA_0                       

 PROCESSING RCH BASE OPTIONS
 END OF RCH BASE OPTIONS

 PROCESSING RCHA OPTIONS
    RECHARGE INPUT WILL BE READ AS ARRAY(S).
 END OF RCHA OPTIONS

 CHD   -- CHD PACKAGE, VERSION 8, 2/22/2014 INPUT READ FROM MEMPATH: __INPUT__/EPM_WSGRID/CHD_0                        

 PROCESSING CHD BASE OPTIONS
 END OF CHD BASE OPTIONS

 PROCESSING CHD BASE DIMENSIONS
    MAXBOUND =     497
 END OF CHD BASE DIMENSIONS
    STRT set from input file
    BINARY GRID INFORMATION WILL BE WRITTEN TO:
      UNIT NUMBER: 1013
      FILE NAME: EPM_wsgrid.dis.grb

 OPENED EPM_wsgrid.dis.grb
 FILE TYPE:DATA(BINARY)   UNIT 1013   STATUS:REPLACE             
 FORMAT:UNFORMATTED            ACCESS:STREAM              
 ACTION:READWRITE           

      THE LAST TIME STEP WILL BE PRINTED
      THE LAST TIME STEP WILL BE PRINTED
 # File generated by Flopy version 3.8.2 on 11/07/2024 at 18:43:43.

 PROCESSING OC OPTIONS

    BUDGET INFORMATION WILL BE WRITTEN TO:
      UNIT NUMBER: 1014
      FILE NAME: EPM_wsgrid.bud

 OPENED EPM_wsgrid.bud
 FILE TYPE:DATA(BINARY)   UNIT 1014   STATUS:REPLACE             
 FORMAT:UNFORMATTED            ACCESS:STREAM              
 ACTION:READWRITE           

    HEAD INFORMATION WILL BE WRITTEN TO:
      UNIT NUMBER: 1015
      FILE NAME: EPM_wsgrid.hds

 OPENED EPM_wsgrid.hds
 FILE TYPE:DATA(BINARY)   UNIT 1015   STATUS:REPLACE             
 FORMAT:UNFORMATTED            ACCESS:STREAM              
 ACTION:READWRITE           

 END OF OC OPTIONS

start timestep kper="1" kstp="1" mode="normal"


 BEGIN READING OUTPUT CONTROL FOR STRESS PERIOD 1
      ALL TIME STEPS WILL BE SAVED
      ALL TIME STEPS WILL BE SAVED
      ALL TIME STEPS WILL BE PRINTED
      ALL TIME STEPS WILL BE PRINTED

 END READING OUTPUT CONTROL FOR STRESS PERIOD 1

 SLN_1 INNER ITERATION SUMMARY
 --------------------------------------------------------------------------------------------------------------------------------------
      TOTAL      OUTER      INNER                                                            MAXIMUM                                   
  ITERATION  ITERATION  ITERATION  MAXIMUM CHANGE      MAXIMUM CHANGE MODEL-(CELLID)        RESIDUAL    MAXIMUM RESIDUAL MODEL-(CELLID)
 --------------------------------------------------------------------------------------------------------------------------------------
          1          1          1      -337.53879                     1_GWF-(1,4,79)       60732.168                     1_GWF-(1,28,3)
          2          1          2      -188.32959                     1_GWF-(1,28,4)      -48571.507                     1_GWF-(1,28,3)
          3          1          3      -116.44995                    1_GWF-(1,89,36)       25679.401                     1_GWF-(1,4,79)
          4          1          4      -108.97306                     1_GWF-(1,33,7)      -22914.346                     1_GWF-(1,4,79)
          5          1          5      -95.212887                    1_GWF-(1,75,93)      -16098.899                     1_GWF-(1,33,4)
          6          1          6      -94.232051                    1_GWF-(1,72,91)       13901.801                     1_GWF-(1,28,6)
          7          1          7      -82.623189                    1_GWF-(1,70,89)      -11993.462                     1_GWF-(1,4,79)
          8          1          8      -72.008172                    1_GWF-(1,67,85)       11257.315                     1_GWF-(1,28,4)
          9          1          9      -66.540217                    1_GWF-(1,23,67)      -11731.155                     1_GWF-(1,28,4)
         10          1         10      -70.418571                    1_GWF-(1,41,21)       8154.9426                     1_GWF-(1,31,6)
         11          1         11      -64.659321                    1_GWF-(1,43,24)       6614.3223                     1_GWF-(1,4,79)
         12          1         12      -56.882729                    1_GWF-(1,43,26)      -5091.3653                     1_GWF-(1,29,7)
         13          1         13      -47.104744                    1_GWF-(1,41,29)      -7144.0668                     1_GWF-(1,29,4)
         14          1         14      -44.789016                    1_GWF-(1,41,31)       6174.5882                     1_GWF-(1,29,4)
         15          1         15      -41.454304                    1_GWF-(1,36,58)       5191.6042                     1_GWF-(1,28,3)
         16          1         16      -45.674352                    1_GWF-(1,49,60)       5445.9227                    1_GWF-(1,83,70)
         17          1         17      -55.276004                    1_GWF-(1,57,56)      -7765.1976                    1_GWF-(1,83,70)
         18          1         18      -50.221119                    1_GWF-(1,55,56)       6741.2594                    1_GWF-(1,83,70)
         19          1         19      -37.072525                    1_GWF-(1,47,53)       6344.8084                    1_GWF-(1,82,71)
         20          1         20      -30.845398                    1_GWF-(1,50,50)      -5699.3288                    1_GWF-(1,82,71)
         21          1         21      -21.657893                    1_GWF-(1,49,50)      -4656.9468                    1_GWF-(1,83,70)
         22          1         22      -15.627298                    1_GWF-(1,47,46)       3762.6886                    1_GWF-(1,83,70)
         23          1         23      -10.870555                    1_GWF-(1,55,47)      -3308.2059                    1_GWF-(1,83,70)
         24          1         24      -9.6945788                    1_GWF-(1,61,47)      -2693.5233                    1_GWF-(1,82,71)
         25          1         25      -7.5674595                    1_GWF-(1,59,52)       1890.8023                    1_GWF-(1,82,71)
         26          1         26      -5.1604064                    1_GWF-(1,61,51)      -1079.1928                    1_GWF-(1,82,71)
         27          1         27      -3.8319551                    1_GWF-(1,82,46)      -725.45061                    1_GWF-(1,83,70)
         28          1         28      -3.0242325                    1_GWF-(1,81,43)       524.22039                    1_GWF-(1,83,70)
         29          1         29      -2.3729918                    1_GWF-(1,84,42)      -294.66002                    1_GWF-(1,83,70)
         30          1         30      -2.0983532                    1_GWF-(1,72,53)       334.97980                     1_GWF-(1,28,5)
         31          1         31      -2.2936087                    1_GWF-(1,74,51)      -253.75666                     1_GWF-(1,29,7)
         32          1         32      -1.8309887                    1_GWF-(1,76,50)      -235.82051                     1_GWF-(1,30,4)
         33          1         33      -1.5049596                    1_GWF-(1,80,55)      -175.36618                    1_GWF-(1,18,20)
         34          1         34      -1.1355432                    1_GWF-(1,81,54)       118.09531                    1_GWF-(1,81,97)
         35          1         35     -0.77880582                    1_GWF-(1,81,58)       111.31834                     1_GWF-(1,29,7)
         36          1         36     -0.54400179                    1_GWF-(1,85,58)       92.556734                     1_GWF-(1,30,4)
         37          1         37      0.38154509                    1_GWF-(1,26,57)      -56.305240                    1_GWF-(1,25,14)
         38          1         38      0.33562894                    1_GWF-(1,25,53)      -47.188776                    1_GWF-(1,26,18)
         39          1         39      0.34060595                    1_GWF-(1,37,42)       46.873658                    1_GWF-(1,24,15)
         40          1         40      0.27637261                    1_GWF-(1,33,46)      -37.819226                    1_GWF-(1,24,15)
         41          1         41      0.23564016                    1_GWF-(1,42,39)      -29.119614                    1_GWF-(1,27,17)
         42          1         42      0.17981062                    1_GWF-(1,36,38)      -23.967395                     1_GWF-(1,6,62)
         43          1         43      0.12633932                    1_GWF-(1,21,71)      -16.965634                    1_GWF-(1,24,15)
         44          1         44      0.11379847                    1_GWF-(1,19,70)      -12.574944                    1_GWF-(1,27,17)
         45          1         45 -8.09243582E-02                    1_GWF-(1,61,77)      -9.4229067                     1_GWF-(1,27,7)
         46          1         46 -7.52055675E-02                    1_GWF-(1,65,78)       10.154917                     1_GWF-(1,39,5)
         47          1         47 -6.85309199E-02                    1_GWF-(1,59,72)       6.6276649                    1_GWF-(1,81,96)
         48          1         48 -5.20223433E-02                    1_GWF-(1,59,70)      -6.9132202                    1_GWF-(1,26,14)
         49          1         49 -4.08273881E-02                    1_GWF-(1,62,69)      -5.5667406                    1_GWF-(1,66,95)
         50          1         50 -3.51244936E-02                    1_GWF-(1,65,69)      -4.6086304                     1_GWF-(1,31,4)
         51          1         51 -2.32693475E-02                    1_GWF-(1,68,70)       3.2989829                    1_GWF-(1,79,98)
         52          1         52 -2.09646698E-02                    1_GWF-(1,69,75)      -2.5475045                    1_GWF-(1,79,92)
         53          1         53 -1.44784447E-02                    1_GWF-(1,69,73)      -1.9730858                    1_GWF-(1,65,95)
         54          1         54  1.15015442E-02                    1_GWF-(1,69,44)       1.7933855                    1_GWF-(1,28,13)
         55          1         55 -9.43994183E-03                    1_GWF-(1,61,77)       1.2747558                     1_GWF-(1,30,5)
         56          1         56  7.60350843E-03                    1_GWF-(1,67,39)     -0.92307085                    1_GWF-(1,31,10)
         57          1         57 -6.42755266E-03                    1_GWF-(1,41,76)     -0.84406641                    1_GWF-(1,78,71)
         58          1         58 -8.25730324E-03                    1_GWF-(1,39,73)      0.88961844                    1_GWF-(1,30,11)
         59          1         59 -6.86684970E-03                    1_GWF-(1,23,64)      -1.0725450                     1_GWF-(1,30,5)
         60          1         60 -5.69674808E-03                    1_GWF-(1,30,64)      0.69767957                     1_GWF-(1,30,5)
         61          1         61 -5.08947691E-03                    1_GWF-(1,34,64)     -0.55247594                    1_GWF-(1,28,13)
         62          1         62 -3.84551348E-03                    1_GWF-(1,36,64)      0.41211987                    1_GWF-(1,28,13)
         63          1         63 -2.48700827E-03                    1_GWF-(1,34,67)     -0.33937413                     1_GWF-(1,28,7)
         64          1         64 -1.44529920E-03                    1_GWF-(1,39,68)     -0.16496526                     1_GWF-(1,33,6)
         65          1         65  8.50138157E-04                    1_GWF-(1,49,38)     -0.13194025                     1_GWF-(1,9,58)
         66          1         66  6.04301539E-04                    1_GWF-(1,49,33)     -0.11025583                    1_GWF-(1,30,12)
         67          1         67 -5.20156391E-04                    1_GWF-(1,69,32)      0.10232744                     1_GWF-(1,28,7)
         68          1         68 -3.74408670E-04                    1_GWF-(1,85,36) -4.23673557E-02                    1_GWF-(1,20,17)
         69          2          1 -8.01071215E-02                    1_GWF-(1,20,51)      -14.534084                    1_GWF-(1,68,24)
         70          2          2      0.19679866                    1_GWF-(1,72,76)      -39.191436                    1_GWF-(1,81,72)
         71          2          3      0.39996720                    1_GWF-(1,59,83)       26.435506                    1_GWF-(1,81,72)
         72          2          4      0.20077678                    1_GWF-(1,67,27)      -17.137696                    1_GWF-(1,20,51)
         73          2          5      0.13682538                    1_GWF-(1,25,46)      -17.124797                    1_GWF-(1,82,71)
         74          2          6      0.17977870                    1_GWF-(1,50,33)       13.621806                    1_GWF-(1,82,71)
         75          2          7      0.19045849                    1_GWF-(1,48,33)      -12.708218                    1_GWF-(1,20,51)
         76          2          8      0.14709227                    1_GWF-(1,61,50)      -10.590050                    1_GWF-(1,82,71)
         77          2          9      0.13156882                    1_GWF-(1,59,51)      -7.8249138                    1_GWF-(1,82,70)
         78          2         10      0.14180713                    1_GWF-(1,57,52)      -4.9535395                    1_GWF-(1,49,84)
         79          2         11      0.11876505                    1_GWF-(1,55,53)       6.5050169                    1_GWF-(1,20,51)
         80          2         12  8.94546691E-02                    1_GWF-(1,55,57)      -3.8704030                    1_GWF-(1,82,70)
         81          2         13  7.03860059E-02                    1_GWF-(1,54,57)       2.1905220                    1_GWF-(1,16,56)
         82          2         14  4.93180347E-02                    1_GWF-(1,55,56)       2.2063345                    1_GWF-(1,20,51)
         83          2         15  3.70947089E-02                    1_GWF-(1,45,52)      -1.9499365                    1_GWF-(1,20,51)
         84          2         16  2.61032437E-02                    1_GWF-(1,47,52)      0.89211575                    1_GWF-(1,28,26)
         85          2         17  2.17866426E-02                    1_GWF-(1,51,48)     -0.70240106                    1_GWF-(1,58,80)
         86          2         18  1.79699508E-02                    1_GWF-(1,51,49)     -0.84654889                    1_GWF-(1,20,51)
         87          2         19  1.22740737E-02                    1_GWF-(1,74,54)      0.64189258                    1_GWF-(1,20,51)
         88          2         20  9.22985779E-03                    1_GWF-(1,73,50)      0.34223367                    1_GWF-(1,58,34)
         89          2         21 -7.99727475E-03                    1_GWF-(1,42,22)     -0.35712154                    1_GWF-(1,82,70)
         90          2         22 -7.56175491E-03                    1_GWF-(1,43,24)      0.36537668                    1_GWF-(1,20,51)
         91          2         23 -4.83120249E-03                    1_GWF-(1,45,26)      0.14765805                    1_GWF-(1,58,78)
         92          2         24 -3.13188625E-03                    1_GWF-(1,47,26)     -0.15994711                    1_GWF-(1,82,70)
         93          2         25  2.73370829E-03                    1_GWF-(1,69,63)      0.17241199                    1_GWF-(1,20,51)
         94          2         26  3.20949185E-03                    1_GWF-(1,72,58)     -0.15203173                    1_GWF-(1,20,51)
         95          2         27  3.01832680E-03                    1_GWF-(1,74,61) -9.93547276E-02                    1_GWF-(1,82,70)
         96          2         28  2.02246735E-03                    1_GWF-(1,74,59) -6.86669602E-02                    1_GWF-(1,62,73)
         97          2         29  1.39770496E-03                    1_GWF-(1,75,58) -7.56108685E-02                    1_GWF-(1,20,51)
         98          2         30  1.07926945E-03                    1_GWF-(1,53,74)  4.18215457E-02                    1_GWF-(1,20,51)
         99          2         31  8.55554673E-04                    1_GWF-(1,80,56) -3.57082289E-02                    1_GWF-(1,81,70)
        100          3          1  1.33426363E-03                    1_GWF-(1,81,70)      0.12223982                    1_GWF-(1,20,52)
        101          3          2 -1.94018381E-03                    1_GWF-(1,49,46)     -0.10164777                    1_GWF-(1,53,74)
        102          3          3 -2.36727136E-03                    1_GWF-(1,48,44)      0.10626366                    1_GWF-(1,78,72)
        103          3          4 -2.73834012E-03                    1_GWF-(1,49,40)     -0.13068694                    1_GWF-(1,82,70)
        104          3          5 -3.12807596E-03                    1_GWF-(1,52,43)  9.34187040E-02                    1_GWF-(1,92,66)
        105          3          6 -3.33859980E-03                    1_GWF-(1,54,54)     -0.11814753                    1_GWF-(1,21,51)
        106          3          7 -3.21035656E-03                    1_GWF-(1,54,48)     -0.10952295                    1_GWF-(1,82,70)
        107          3          8 -2.68546417E-03                    1_GWF-(1,54,50) -7.23248204E-02                    1_GWF-(1,23,43)
        108          3          9 -2.05661691E-03                    1_GWF-(1,34,49) -6.27685595E-02                    1_GWF-(1,21,51)
        109          3         10 -1.74578191E-03                    1_GWF-(1,37,49) -5.79292187E-02                    1_GWF-(1,82,70)
        110          3         11 -1.56843408E-03                    1_GWF-(1,39,48) -5.11605395E-02                    1_GWF-(1,23,43)
        111          3         12 -1.32204321E-03                    1_GWF-(1,60,74)  3.92025010E-02                    1_GWF-(1,78,60)
        112          3         13 -1.04999791E-03                    1_GWF-(1,59,71) -4.01940458E-02                    1_GWF-(1,81,71)
        113          3         14 -9.32441250E-04                    1_GWF-(1,57,69) -2.80854226E-02                    1_GWF-(1,77,61)
        114          4          1  2.15345989E-04                    1_GWF-(1,43,45)  1.68762920E-02                    1_GWF-(1,53,78)
 --------------------------------------------------------------------------------------------------------------------------------------


 UBDSV1 SAVING     FLOW-JA-FACE ON UNIT   1014 AT TIME STEP      1, STRESS PERIOD      1
 UBDSV06 SAVING       DATA-SPDIS IN MODEL EPM_WSGRID       PACKAGE NPF             CONNECTED TO MODEL EPM_WSGRID       PACKAGE NPF              ON UNIT   1014 AT TIME STEP      1, STRESS PERIOD      1
 UBDSV06 SAVING             RCHA IN MODEL EPM_WSGRID       PACKAGE EPM_WSGRID      CONNECTED TO MODEL EPM_WSGRID       PACKAGE RCHA_0           ON UNIT   1014 AT TIME STEP      1, STRESS PERIOD      1
 UBDSV06 SAVING              CHD IN MODEL EPM_WSGRID       PACKAGE EPM_WSGRID      CONNECTED TO MODEL EPM_WSGRID       PACKAGE CHD_0            ON UNIT   1014 AT TIME STEP      1, STRESS PERIOD      1
1
  HEAD IN LAYER   1 AT END OF TIME STEP   1 IN STRESS PERIOD    1
  ---------------------------------------------------------------------------

 ........................................................................................................................................................................................................................................................................................................................................................................................................................................................................................................................................................................................................................................................................................................................................................................................................................................................................................................................................................................................................................................
   1   1.0000E+30  1.0000E+30  1.0000E+30  1.0000E+30  1.0000E+30  1.0000E+30  1.0000E+30  1.0000E+30  1.0000E+30  1.0000E+30
       1.0000E+30  1.0000E+30  1.0000E+30  1.0000E+30  1.0000E+30  1.0000E+30  1.0000E+30  1.0000E+30  1.0000E+30  1.0000E+30
       1.0000E+30  1.0000E+30  1.0000E+30  1.0000E+30  1.0000E+30  1.0000E+30  1.0000E+30  1.0000E+30  1.0000E+30  1.0000E+30
       1.0000E+30  1.0000E+30  1.0000E+30  1.0000E+30  1.0000E+30  1.0000E+30  1.0000E+30  1.0000E+30  1.0000E+30  1.0000E+30
       1.0000E+30  1.0000E+30  1.0000E+30  1.0000E+30  1.0000E+30  1.0000E+30  1.0000E+30  1.0000E+30  1.0000E+30  1.0000E+30
       1.0000E+30  1.0000E+30  1.0000E+30  1.0000E+30  1.0000E+30  1.0000E+30  1.0000E+30  1.0000E+30  1.0000E+30  1.0000E+30
        100.0       100.0       100.0       100.0      1.0000E+30  1.0000E+30  1.0000E+30  1.0000E+30  1.0000E+30  1.0000E+30
       1.0000E+30  1.0000E+30  1.0000E+30  1.0000E+30  1.0000E+30  1.0000E+30  1.0000E+30  1.0000E+30  1.0000E+30  1.0000E+30
       1.0000E+30  1.0000E+30  1.0000E+30  1.0000E+30  1.0000E+30  1.0000E+30  1.0000E+30  1.0000E+30  1.0000E+30  1.0000E+30
       1.0000E+30  1.0000E+30  1.0000E+30  1.0000E+30  1.0000E+30  1.0000E+30  1.0000E+30  1.0000E+30  1.0000E+30  1.0000E+30
   2   1.0000E+30  1.0000E+30  1.0000E+30  1.0000E+30  1.0000E+30  1.0000E+30  1.0000E+30  1.0000E+30  1.0000E+30  1.0000E+30
       1.0000E+30  1.0000E+30  1.0000E+30  1.0000E+30  1.0000E+30  1.0000E+30  1.0000E+30  1.0000E+30  1.0000E+30  1.0000E+30
       1.0000E+30  1.0000E+30  1.0000E+30  1.0000E+30  1.0000E+30  1.0000E+30  1.0000E+30  1.0000E+30  1.0000E+30  1.0000E+30
       1.0000E+30  1.0000E+30  1.0000E+30  1.0000E+30  1.0000E+30  1.0000E+30  1.0000E+30  1.0000E+30  1.0000E+30  1.0000E+30
       1.0000E+30  1.0000E+30  1.0000E+30  1.0000E+30  1.0000E+30  1.0000E+30  1.0000E+30  1.0000E+30  1.0000E+30  1.0000E+30
       1.0000E+30  1.0000E+30  1.0000E+30  1.0000E+30  1.0000E+30  1.0000E+30  1.0000E+30  1.0000E+30  1.0000E+30   100.0    
        100.0       100.0       100.0       100.0       100.0       100.0       100.0      1.0000E+30  1.0000E+30  1.0000E+30
       1.0000E+30  1.0000E+30  1.0000E+30  1.0000E+30  1.0000E+30  1.0000E+30  1.0000E+30   100.0       100.0      1.0000E+30
       1.0000E+30  1.0000E+30  1.0000E+30  1.0000E+30  1.0000E+30  1.0000E+30  1.0000E+30  1.0000E+30  1.0000E+30  1.0000E+30
       1.0000E+30  1.0000E+30  1.0000E+30  1.0000E+30  1.0000E+30  1.0000E+30  1.0000E+30  1.0000E+30  1.0000E+30  1.0000E+30
   3   1.0000E+30  1.0000E+30  1.0000E+30  1.0000E+30  1.0000E+30  1.0000E+30  1.0000E+30  1.0000E+30  1.0000E+30  1.0000E+30
       1.0000E+30  1.0000E+30  1.0000E+30  1.0000E+30  1.0000E+30  1.0000E+30  1.0000E+30  1.0000E+30  1.0000E+30  1.0000E+30
       1.0000E+30  1.0000E+30  1.0000E+30  1.0000E+30  1.0000E+30  1.0000E+30  1.0000E+30  1.0000E+30  1.0000E+30  1.0000E+30
       1.0000E+30  1.0000E+30  1.0000E+30  1.0000E+30  1.0000E+30  1.0000E+30  1.0000E+30  1.0000E+30  1.0000E+30  1.0000E+30
       1.0000E+30  1.0000E+30  1.0000E+30  1.0000E+30  1.0000E+30  1.0000E+30  1.0000E+30  1.0000E+30  1.0000E+30  1.0000E+30
       1.0000E+30  1.0000E+30  1.0000E+30  1.0000E+30  1.0000E+30  1.0000E+30  1.0000E+30  1.0000E+30  1.0000E+30   100.0    
        100.0       100.1       100.1       100.1       100.1       100.0       100.0      1.0000E+30  1.0000E+30  1.0000E+30
       1.0000E+30  1.0000E+30  1.0000E+30  1.0000E+30  1.0000E+30  1.0000E+30  1.0000E+30   100.0       100.0       100.0    
       1.0000E+30  1.0000E+30  1.0000E+30  1.0000E+30  1.0000E+30  1.0000E+30  1.0000E+30  1.0000E+30  1.0000E+30  1.0000E+30
       1.0000E+30  1.0000E+30  1.0000E+30  1.0000E+30  1.0000E+30  1.0000E+30  1.0000E+30  1.0000E+30  1.0000E+30  1.0000E+30
   4   1.0000E+30  1.0000E+30  1.0000E+30  1.0000E+30  1.0000E+30  1.0000E+30  1.0000E+30  1.0000E+30  1.0000E+30  1.0000E+30
       1.0000E+30  1.0000E+30  1.0000E+30  1.0000E+30  1.0000E+30  1.0000E+30  1.0000E+30  1.0000E+30  1.0000E+30  1.0000E+30
       1.0000E+30  1.0000E+30  1.0000E+30  1.0000E+30  1.0000E+30  1.0000E+30  1.0000E+30  1.0000E+30  1.0000E+30  1.0000E+30
       1.0000E+30  1.0000E+30  1.0000E+30  1.0000E+30  1.0000E+30  1.0000E+30  1.0000E+30  1.0000E+30  1.0000E+30  1.0000E+30
       1.0000E+30  1.0000E+30  1.0000E+30  1.0000E+30  1.0000E+30  1.0000E+30  1.0000E+30  1.0000E+30  1.0000E+30  1.0000E+30
       1.0000E+30  1.0000E+30  1.0000E+30  1.0000E+30  1.0000E+30  1.0000E+30   100.0       100.0       100.0       100.0    
        100.1       100.1       100.1       100.1       100.1       100.1       100.0       100.0      1.0000E+30   100.0    
        100.0      1.0000E+30  1.0000E+30  1.0000E+30  1.0000E+30  1.0000E+30  1.0000E+30   100.0       100.0       100.0    
       1.0000E+30  1.0000E+30  1.0000E+30  1.0000E+30  1.0000E+30  1.0000E+30  1.0000E+30  1.0000E+30  1.0000E+30  1.0000E+30
       1.0000E+30  1.0000E+30  1.0000E+30  1.0000E+30  1.0000E+30  1.0000E+30  1.0000E+30  1.0000E+30  1.0000E+30  1.0000E+30
   5   1.0000E+30  1.0000E+30  1.0000E+30  1.0000E+30  1.0000E+30  1.0000E+30  1.0000E+30  1.0000E+30  1.0000E+30  1.0000E+30
       1.0000E+30  1.0000E+30  1.0000E+30  1.0000E+30  1.0000E+30  1.0000E+30  1.0000E+30  1.0000E+30  1.0000E+30  1.0000E+30
       1.0000E+30  1.0000E+30  1.0000E+30  1.0000E+30  1.0000E+30  1.0000E+30  1.0000E+30  1.0000E+30  1.0000E+30  1.0000E+30
       1.0000E+30  1.0000E+30  1.0000E+30  1.0000E+30  1.0000E+30  1.0000E+30  1.0000E+30  1.0000E+30  1.0000E+30  1.0000E+30
       1.0000E+30  1.0000E+30  1.0000E+30  1.0000E+30  1.0000E+30  1.0000E+30  1.0000E+30  1.0000E+30  1.0000E+30  1.0000E+30
       1.0000E+30  1.0000E+30  1.0000E+30  1.0000E+30  1.0000E+30  1.0000E+30   100.0       100.0       100.1       100.1    
        100.2       100.2       100.2       100.2       100.2       100.1       100.1       100.0       100.0       100.0    
        100.0      1.0000E+30  1.0000E+30  1.0000E+30  1.0000E+30  1.0000E+30  1.0000E+30   100.0       100.0       100.0    
       1.0000E+30  1.0000E+30  1.0000E+30  1.0000E+30  1.0000E+30  1.0000E+30  1.0000E+30  1.0000E+30  1.0000E+30  1.0000E+30
       1.0000E+30  1.0000E+30  1.0000E+30  1.0000E+30  1.0000E+30  1.0000E+30  1.0000E+30  1.0000E+30  1.0000E+30  1.0000E+30
   6   1.0000E+30  1.0000E+30  1.0000E+30  1.0000E+30  1.0000E+30  1.0000E+30  1.0000E+30  1.0000E+30  1.0000E+30  1.0000E+30
       1.0000E+30  1.0000E+30  1.0000E+30  1.0000E+30  1.0000E+30  1.0000E+30  1.0000E+30  1.0000E+30  1.0000E+30  1.0000E+30
       1.0000E+30  1.0000E+30  1.0000E+30  1.0000E+30  1.0000E+30  1.0000E+30  1.0000E+30  1.0000E+30  1.0000E+30  1.0000E+30
       1.0000E+30  1.0000E+30  1.0000E+30  1.0000E+30  1.0000E+30  1.0000E+30  1.0000E+30  1.0000E+30  1.0000E+30  1.0000E+30
       1.0000E+30  1.0000E+30  1.0000E+30  1.0000E+30  1.0000E+30  1.0000E+30  1.0000E+30  1.0000E+30  1.0000E+30  1.0000E+30
       1.0000E+30  1.0000E+30  1.0000E+30  1.0000E+30  1.0000E+30   100.0       100.0       100.1       100.1       100.2    
        100.2       100.3       100.3       100.3       100.3       100.2       100.2       100.1       100.1       100.1    
        100.0      1.0000E+30  1.0000E+30  1.0000E+30   100.0       100.0       100.0       100.0       100.0       100.0    
       1.0000E+30  1.0000E+30  1.0000E+30  1.0000E+30  1.0000E+30  1.0000E+30  1.0000E+30  1.0000E+30  1.0000E+30  1.0000E+30
       1.0000E+30  1.0000E+30  1.0000E+30  1.0000E+30  1.0000E+30  1.0000E+30  1.0000E+30  1.0000E+30  1.0000E+30  1.0000E+30
   7   1.0000E+30  1.0000E+30  1.0000E+30  1.0000E+30  1.0000E+30  1.0000E+30  1.0000E+30  1.0000E+30  1.0000E+30  1.0000E+30
       1.0000E+30  1.0000E+30  1.0000E+30  1.0000E+30  1.0000E+30  1.0000E+30  1.0000E+30  1.0000E+30  1.0000E+30  1.0000E+30
       1.0000E+30  1.0000E+30  1.0000E+30  1.0000E+30  1.0000E+30  1.0000E+30  1.0000E+30  1.0000E+30  1.0000E+30  1.0000E+30
       1.0000E+30  1.0000E+30  1.0000E+30  1.0000E+30  1.0000E+30  1.0000E+30  1.0000E+30  1.0000E+30  1.0000E+30  1.0000E+30
       1.0000E+30  1.0000E+30  1.0000E+30  1.0000E+30  1.0000E+30  1.0000E+30  1.0000E+30  1.0000E+30  1.0000E+30  1.0000E+30
       1.0000E+30  1.0000E+30  1.0000E+30   100.0       100.0       100.0       100.1       100.2       100.2       100.3    
        100.3       100.3       100.3       100.3       100.3       100.3       100.3       100.2       100.2       100.1    
        100.0       100.0      1.0000E+30   100.0       100.0       100.0       100.0       100.0       100.0       100.0    
       1.0000E+30  1.0000E+30  1.0000E+30  1.0000E+30  1.0000E+30  1.0000E+30  1.0000E+30  1.0000E+30  1.0000E+30  1.0000E+30
       1.0000E+30  1.0000E+30  1.0000E+30  1.0000E+30  1.0000E+30  1.0000E+30  1.0000E+30  1.0000E+30  1.0000E+30  1.0000E+30
   8   1.0000E+30  1.0000E+30  1.0000E+30  1.0000E+30  1.0000E+30  1.0000E+30  1.0000E+30  1.0000E+30  1.0000E+30  1.0000E+30
       1.0000E+30  1.0000E+30  1.0000E+30  1.0000E+30  1.0000E+30  1.0000E+30  1.0000E+30  1.0000E+30  1.0000E+30  1.0000E+30
       1.0000E+30  1.0000E+30  1.0000E+30  1.0000E+30  1.0000E+30  1.0000E+30  1.0000E+30  1.0000E+30  1.0000E+30  1.0000E+30
       1.0000E+30  1.0000E+30  1.0000E+30  1.0000E+30  1.0000E+30  1.0000E+30  1.0000E+30  1.0000E+30  1.0000E+30  1.0000E+30
       1.0000E+30  1.0000E+30  1.0000E+30  1.0000E+30  1.0000E+30  1.0000E+30  1.0000E+30  1.0000E+30  1.0000E+30  1.0000E+30
       1.0000E+30  1.0000E+30  1.0000E+30   100.0       100.0       100.1       100.2       100.2       100.3       100.3    
        100.4       100.4       100.4       100.4       100.4       100.4       100.4       100.3       100.3       100.2    
        100.1       100.0       100.0       100.0       100.1       100.1       100.1       100.1       100.0       100.0    
       1.0000E+30  1.0000E+30  1.0000E+30  1.0000E+30  1.0000E+30  1.0000E+30  1.0000E+30  1.0000E+30  1.0000E+30  1.0000E+30
       1.0000E+30  1.0000E+30  1.0000E+30  1.0000E+30  1.0000E+30  1.0000E+30  1.0000E+30  1.0000E+30  1.0000E+30  1.0000E+30
   9   1.0000E+30  1.0000E+30  1.0000E+30  1.0000E+30  1.0000E+30  1.0000E+30  1.0000E+30  1.0000E+30  1.0000E+30  1.0000E+30
       1.0000E+30  1.0000E+30  1.0000E+30  1.0000E+30  1.0000E+30  1.0000E+30  1.0000E+30  1.0000E+30  1.0000E+30  1.0000E+30
       1.0000E+30  1.0000E+30  1.0000E+30  1.0000E+30  1.0000E+30  1.0000E+30  1.0000E+30  1.0000E+30  1.0000E+30  1.0000E+30
       1.0000E+30  1.0000E+30  1.0000E+30  1.0000E+30  1.0000E+30  1.0000E+30  1.0000E+30  1.0000E+30  1.0000E+30  1.0000E+30
       1.0000E+30  1.0000E+30  1.0000E+30  1.0000E+30  1.0000E+30  1.0000E+30  1.0000E+30  1.0000E+30  1.0000E+30  1.0000E+30
       1.0000E+30  1.0000E+30   100.0       100.0       100.1       100.2       100.2       100.3       100.3       100.4    
        100.4       100.5       100.5       100.5       100.5       100.5       100.4       100.4       100.4       100.3    
        100.2       100.2       100.1       100.1       100.1       100.1       100.1       100.1       100.1       100.0    
        100.0      1.0000E+30  1.0000E+30  1.0000E+30  1.0000E+30  1.0000E+30  1.0000E+30  1.0000E+30  1.0000E+30  1.0000E+30
       1.0000E+30  1.0000E+30  1.0000E+30  1.0000E+30  1.0000E+30  1.0000E+30  1.0000E+30  1.0000E+30  1.0000E+30  1.0000E+30
  10   1.0000E+30  1.0000E+30  1.0000E+30  1.0000E+30  1.0000E+30  1.0000E+30  1.0000E+30  1.0000E+30  1.0000E+30  1.0000E+30
       1.0000E+30  1.0000E+30  1.0000E+30  1.0000E+30  1.0000E+30  1.0000E+30  1.0000E+30  1.0000E+30  1.0000E+30  1.0000E+30
       1.0000E+30  1.0000E+30  1.0000E+30  1.0000E+30  1.0000E+30  1.0000E+30  1.0000E+30  1.0000E+30  1.0000E+30  1.0000E+30
       1.0000E+30  1.0000E+30  1.0000E+30  1.0000E+30  1.0000E+30  1.0000E+30  1.0000E+30  1.0000E+30  1.0000E+30  1.0000E+30
       1.0000E+30  1.0000E+30  1.0000E+30  1.0000E+30  1.0000E+30  1.0000E+30  1.0000E+30  1.0000E+30  1.0000E+30  1.0000E+30
       1.0000E+30   100.0       100.0       100.1       100.1       100.2       100.3       100.4       100.4       100.5    
        100.5       100.5       100.6       100.6       100.6       100.6       100.5       100.5       100.5       100.4    
        100.4       100.3       100.3       100.2       100.2       100.2       100.2       100.1       100.1       100.0    
        100.0      1.0000E+30  1.0000E+30  1.0000E+30  1.0000E+30  1.0000E+30  1.0000E+30  1.0000E+30  1.0000E+30  1.0000E+30
       1.0000E+30  1.0000E+30  1.0000E+30  1.0000E+30  1.0000E+30  1.0000E+30  1.0000E+30  1.0000E+30  1.0000E+30  1.0000E+30
  11   1.0000E+30  1.0000E+30  1.0000E+30  1.0000E+30  1.0000E+30  1.0000E+30  1.0000E+30  1.0000E+30  1.0000E+30  1.0000E+30
       1.0000E+30  1.0000E+30  1.0000E+30  1.0000E+30  1.0000E+30  1.0000E+30  1.0000E+30  1.0000E+30  1.0000E+30  1.0000E+30
       1.0000E+30  1.0000E+30  1.0000E+30  1.0000E+30  1.0000E+30  1.0000E+30  1.0000E+30  1.0000E+30  1.0000E+30  1.0000E+30
       1.0000E+30  1.0000E+30  1.0000E+30  1.0000E+30  1.0000E+30  1.0000E+30  1.0000E+30  1.0000E+30  1.0000E+30  1.0000E+30
       1.0000E+30  1.0000E+30  1.0000E+30  1.0000E+30  1.0000E+30  1.0000E+30  1.0000E+30  1.0000E+30  1.0000E+30  1.0000E+30
       1.0000E+30   100.0       100.0       100.1       100.2       100.3       100.4       100.4       100.5       100.5    
        100.6       100.6       100.6       100.6       100.6       100.6       100.6       100.6       100.6       100.5    
        100.5       100.4       100.4       100.3       100.3       100.3       100.2       100.2       100.1       100.1    
        100.0      1.0000E+30  1.0000E+30  1.0000E+30  1.0000E+30  1.0000E+30  1.0000E+30  1.0000E+30  1.0000E+30  1.0000E+30
       1.0000E+30  1.0000E+30  1.0000E+30  1.0000E+30  1.0000E+30  1.0000E+30  1.0000E+30  1.0000E+30  1.0000E+30  1.0000E+30
  12   1.0000E+30  1.0000E+30  1.0000E+30  1.0000E+30  1.0000E+30  1.0000E+30  1.0000E+30  1.0000E+30  1.0000E+30  1.0000E+30
       1.0000E+30  1.0000E+30  1.0000E+30  1.0000E+30  1.0000E+30  1.0000E+30  1.0000E+30  1.0000E+30  1.0000E+30  1.0000E+30
       1.0000E+30  1.0000E+30  1.0000E+30  1.0000E+30  1.0000E+30  1.0000E+30  1.0000E+30  1.0000E+30  1.0000E+30  1.0000E+30
       1.0000E+30  1.0000E+30  1.0000E+30  1.0000E+30  1.0000E+30  1.0000E+30  1.0000E+30  1.0000E+30  1.0000E+30  1.0000E+30
       1.0000E+30  1.0000E+30  1.0000E+30  1.0000E+30  1.0000E+30  1.0000E+30  1.0000E+30  1.0000E+30  1.0000E+30  1.0000E+30
       1.0000E+30   100.0       100.0       100.1       100.2       100.3       100.4       100.5       100.6       100.6    
        100.7       100.7       100.7       100.7       100.7       100.7       100.7       100.7       100.6       100.6    
        100.6       100.5       100.5       100.4       100.4       100.3       100.3       100.2       100.2       100.1    
        100.0      1.0000E+30  1.0000E+30  1.0000E+30  1.0000E+30  1.0000E+30  1.0000E+30  1.0000E+30  1.0000E+30  1.0000E+30
       1.0000E+30  1.0000E+30  1.0000E+30  1.0000E+30  1.0000E+30  1.0000E+30  1.0000E+30  1.0000E+30  1.0000E+30  1.0000E+30
  13   1.0000E+30  1.0000E+30  1.0000E+30  1.0000E+30  1.0000E+30  1.0000E+30  1.0000E+30  1.0000E+30  1.0000E+30  1.0000E+30
       1.0000E+30  1.0000E+30  1.0000E+30  1.0000E+30  1.0000E+30  1.0000E+30  1.0000E+30  1.0000E+30  1.0000E+30  1.0000E+30
       1.0000E+30  1.0000E+30  1.0000E+30  1.0000E+30  1.0000E+30  1.0000E+30  1.0000E+30  1.0000E+30  1.0000E+30  1.0000E+30
       1.0000E+30  1.0000E+30  1.0000E+30  1.0000E+30  1.0000E+30  1.0000E+30  1.0000E+30  1.0000E+30  1.0000E+30  1.0000E+30
       1.0000E+30  1.0000E+30  1.0000E+30  1.0000E+30  1.0000E+30  1.0000E+30  1.0000E+30  1.0000E+30  1.0000E+30  1.0000E+30
       1.0000E+30   100.0       100.1       100.2       100.3       100.4       100.5       100.6       100.6       100.7    
        100.7       100.8       100.8       100.8       100.8       100.8       100.8       100.8       100.7       100.7    
        100.7       100.6       100.6       100.5       100.5       100.4       100.4       100.3       100.2       100.1    
        100.0      1.0000E+30  1.0000E+30  1.0000E+30  1.0000E+30  1.0000E+30  1.0000E+30  1.0000E+30  1.0000E+30  1.0000E+30
       1.0000E+30  1.0000E+30  1.0000E+30  1.0000E+30  1.0000E+30  1.0000E+30  1.0000E+30  1.0000E+30  1.0000E+30  1.0000E+30
  14   1.0000E+30  1.0000E+30  1.0000E+30  1.0000E+30  1.0000E+30  1.0000E+30  1.0000E+30  1.0000E+30  1.0000E+30  1.0000E+30
       1.0000E+30  1.0000E+30  1.0000E+30  1.0000E+30  1.0000E+30  1.0000E+30  1.0000E+30  1.0000E+30  1.0000E+30  1.0000E+30
       1.0000E+30  1.0000E+30  1.0000E+30  1.0000E+30  1.0000E+30  1.0000E+30  1.0000E+30  1.0000E+30  1.0000E+30  1.0000E+30
       1.0000E+30  1.0000E+30  1.0000E+30  1.0000E+30  1.0000E+30  1.0000E+30  1.0000E+30  1.0000E+30  1.0000E+30  1.0000E+30
       1.0000E+30  1.0000E+30  1.0000E+30  1.0000E+30  1.0000E+30  1.0000E+30  1.0000E+30  1.0000E+30  1.0000E+30  1.0000E+30
       1.0000E+30   100.0       100.1       100.2       100.3       100.4       100.5       100.6       100.7       100.8    
        100.8       100.8       100.9       100.9       100.9       100.9       100.9       100.8       100.8       100.8    
        100.7       100.7       100.6       100.6       100.5       100.5       100.4       100.3       100.2       100.1    
        100.0      1.0000E+30  1.0000E+30  1.0000E+30  1.0000E+30  1.0000E+30  1.0000E+30  1.0000E+30  1.0000E+30  1.0000E+30
       1.0000E+30  1.0000E+30  1.0000E+30  1.0000E+30  1.0000E+30  1.0000E+30  1.0000E+30  1.0000E+30  1.0000E+30  1.0000E+30
  15   1.0000E+30  1.0000E+30  1.0000E+30  1.0000E+30  1.0000E+30  1.0000E+30  1.0000E+30  1.0000E+30  1.0000E+30  1.0000E+30
       1.0000E+30  1.0000E+30  1.0000E+30  1.0000E+30  1.0000E+30  1.0000E+30  1.0000E+30  1.0000E+30  1.0000E+30  1.0000E+30
       1.0000E+30  1.0000E+30  1.0000E+30  1.0000E+30  1.0000E+30  1.0000E+30  1.0000E+30  1.0000E+30  1.0000E+30  1.0000E+30
       1.0000E+30  1.0000E+30  1.0000E+30  1.0000E+30  1.0000E+30  1.0000E+30  1.0000E+30  1.0000E+30  1.0000E+30  1.0000E+30
       1.0000E+30  1.0000E+30  1.0000E+30  1.0000E+30  1.0000E+30  1.0000E+30  1.0000E+30  1.0000E+30  1.0000E+30  1.0000E+30
       1.0000E+30   100.0       100.0       100.2       100.3       100.5       100.6       100.7       100.8       100.8    
        100.9       100.9       100.9       101.0       101.0       101.0       101.0       100.9       100.9       100.9    
        100.8       100.8       100.7       100.7       100.6       100.5       100.5       100.4       100.3       100.1    
        100.0      1.0000E+30  1.0000E+30  1.0000E+30  1.0000E+30  1.0000E+30  1.0000E+30  1.0000E+30  1.0000E+30  1.0000E+30
       1.0000E+30  1.0000E+30  1.0000E+30  1.0000E+30  1.0000E+30  1.0000E+30  1.0000E+30  1.0000E+30  1.0000E+30  1.0000E+30
  16   1.0000E+30  1.0000E+30  1.0000E+30  1.0000E+30  1.0000E+30  1.0000E+30  1.0000E+30  1.0000E+30  1.0000E+30  1.0000E+30
       1.0000E+30  1.0000E+30  1.0000E+30  1.0000E+30  1.0000E+30  1.0000E+30  1.0000E+30  1.0000E+30  1.0000E+30  1.0000E+30
       1.0000E+30  1.0000E+30  1.0000E+30  1.0000E+30  1.0000E+30  1.0000E+30  1.0000E+30  1.0000E+30  1.0000E+30  1.0000E+30
       1.0000E+30  1.0000E+30  1.0000E+30  1.0000E+30  1.0000E+30  1.0000E+30  1.0000E+30  1.0000E+30  1.0000E+30  1.0000E+30
       1.0000E+30  1.0000E+30  1.0000E+30  1.0000E+30  1.0000E+30  1.0000E+30  1.0000E+30  1.0000E+30  1.0000E+30  1.0000E+30
       1.0000E+30  1.0000E+30   100.0       100.2       100.4       100.5       100.7       100.8       100.8       100.9    
        101.0       101.0       101.0       101.0       101.0       101.0       101.0       101.0       101.0       100.9    
        100.9       100.9       100.8       100.7       100.7       100.6       100.5       100.4       100.3       100.2    
        100.0       100.0      1.0000E+30  1.0000E+30  1.0000E+30  1.0000E+30  1.0000E+30  1.0000E+30  1.0000E+30  1.0000E+30
       1.0000E+30  1.0000E+30  1.0000E+30  1.0000E+30  1.0000E+30  1.0000E+30  1.0000E+30  1.0000E+30  1.0000E+30  1.0000E+30
  17   1.0000E+30  1.0000E+30  1.0000E+30  1.0000E+30  1.0000E+30  1.0000E+30  1.0000E+30  1.0000E+30  1.0000E+30  1.0000E+30
       1.0000E+30  1.0000E+30   100.0       100.0       100.0       100.0       100.0       100.0       100.0       100.0    
        100.0      1.0000E+30  1.0000E+30  1.0000E+30  1.0000E+30  1.0000E+30  1.0000E+30  1.0000E+30  1.0000E+30  1.0000E+30
       1.0000E+30  1.0000E+30  1.0000E+30  1.0000E+30  1.0000E+30  1.0000E+30  1.0000E+30  1.0000E+30  1.0000E+30  1.0000E+30
       1.0000E+30  1.0000E+30  1.0000E+30  1.0000E+30  1.0000E+30  1.0000E+30  1.0000E+30  1.0000E+30  1.0000E+30  1.0000E+30
       1.0000E+30   100.0       100.0       100.3       100.5       100.6       100.7       100.8       100.9       101.0    
        101.0       101.1       101.1       101.1       101.1       101.1       101.1       101.1       101.1       101.0    
        101.0       100.9       100.9       100.8       100.7       100.7       100.6       100.5       100.4       100.2    
        100.1       100.0      1.0000E+30  1.0000E+30  1.0000E+30  1.0000E+30  1.0000E+30  1.0000E+30  1.0000E+30  1.0000E+30
       1.0000E+30  1.0000E+30  1.0000E+30  1.0000E+30  1.0000E+30  1.0000E+30  1.0000E+30  1.0000E+30  1.0000E+30  1.0000E+30
  18   1.0000E+30  1.0000E+30  1.0000E+30  1.0000E+30  1.0000E+30  1.0000E+30  1.0000E+30  1.0000E+30  1.0000E+30  1.0000E+30
       1.0000E+30  1.0000E+30   100.0       100.0       100.0       100.0       100.0       100.0       100.0       100.0    
        100.0       100.0      1.0000E+30  1.0000E+30  1.0000E+30  1.0000E+30  1.0000E+30  1.0000E+30  1.0000E+30  1.0000E+30
       1.0000E+30  1.0000E+30  1.0000E+30  1.0000E+30  1.0000E+30  1.0000E+30  1.0000E+30  1.0000E+30  1.0000E+30  1.0000E+30
       1.0000E+30  1.0000E+30  1.0000E+30  1.0000E+30  1.0000E+30  1.0000E+30  1.0000E+30  1.0000E+30  1.0000E+30  1.0000E+30
       1.0000E+30   100.0       100.2       100.4       100.6       100.7       100.8       100.9       101.0       101.1    
        101.1       101.2       101.2       101.2       101.2       101.2       101.2       101.2       101.1       101.1    
        101.1       101.0       100.9       100.9       100.8       100.7       100.6       100.5       100.4       100.3    
        100.1       100.0      1.0000E+30  1.0000E+30  1.0000E+30  1.0000E+30  1.0000E+30  1.0000E+30  1.0000E+30  1.0000E+30
       1.0000E+30  1.0000E+30  1.0000E+30  1.0000E+30  1.0000E+30  1.0000E+30  1.0000E+30  1.0000E+30  1.0000E+30  1.0000E+30
  19   1.0000E+30  1.0000E+30  1.0000E+30  1.0000E+30  1.0000E+30  1.0000E+30  1.0000E+30  1.0000E+30  1.0000E+30  1.0000E+30
       1.0000E+30  1.0000E+30  1.0000E+30   100.0       100.0       100.1       100.1       100.1       100.1       100.1    
        100.1       100.0       100.0      1.0000E+30  1.0000E+30  1.0000E+30  1.0000E+30  1.0000E+30  1.0000E+30  1.0000E+30
       1.0000E+30  1.0000E+30  1.0000E+30  1.0000E+30  1.0000E+30  1.0000E+30  1.0000E+30  1.0000E+30  1.0000E+30  1.0000E+30
       1.0000E+30  1.0000E+30  1.0000E+30   100.0       100.0       100.0      1.0000E+30  1.0000E+30  1.0000E+30   100.0    
        100.0       100.0       100.3       100.5       100.7       100.8       100.9       101.0       101.1       101.2    
        101.2       101.2       101.3       101.3       101.3       101.3       101.3       101.2       101.2       101.2    
        101.1       101.1       101.0       100.9       100.9       100.8       100.7       100.6       100.5       100.3    
        100.2       100.0       100.0      1.0000E+30  1.0000E+30  1.0000E+30  1.0000E+30  1.0000E+30  1.0000E+30  1.0000E+30
       1.0000E+30  1.0000E+30  1.0000E+30  1.0000E+30  1.0000E+30  1.0000E+30  1.0000E+30  1.0000E+30  1.0000E+30  1.0000E+30
  20   1.0000E+30  1.0000E+30  1.0000E+30  1.0000E+30  1.0000E+30  1.0000E+30  1.0000E+30  1.0000E+30  1.0000E+30  1.0000E+30
       1.0000E+30  1.0000E+30  1.0000E+30   100.0       100.1       100.1       100.1       100.1       100.2       100.2    
        100.1       100.1       100.0       100.0       100.0       100.0       100.0       100.0      1.0000E+30  1.0000E+30
       1.0000E+30  1.0000E+30  1.0000E+30  1.0000E+30  1.0000E+30  1.0000E+30  1.0000E+30  1.0000E+30  1.0000E+30  1.0000E+30
       1.0000E+30  1.0000E+30  1.0000E+30   100.0       100.0       100.0       100.0       100.0       100.0       100.0    
        100.2       100.3       100.5       100.6       100.8       100.9       101.0       101.1       101.2       101.2    
        101.3       101.3       101.4       101.4       101.4       101.4       101.3       101.3       101.3       101.2    
        101.2       101.1       101.1       101.0       100.9       100.8       100.7       100.6       100.5       100.4    
        100.2       100.1       100.0      1.0000E+30  1.0000E+30  1.0000E+30  1.0000E+30  1.0000E+30  1.0000E+30  1.0000E+30
       1.0000E+30  1.0000E+30  1.0000E+30  1.0000E+30  1.0000E+30  1.0000E+30  1.0000E+30  1.0000E+30  1.0000E+30  1.0000E+30
  21   1.0000E+30  1.0000E+30  1.0000E+30  1.0000E+30  1.0000E+30  1.0000E+30  1.0000E+30  1.0000E+30  1.0000E+30  1.0000E+30
       1.0000E+30  1.0000E+30   100.0       100.0       100.1       100.1       100.2       100.2       100.2       100.2    
        100.2       100.2       100.1       100.1       100.1       100.1       100.1       100.0       100.0      1.0000E+30
        100.0       100.0      1.0000E+30  1.0000E+30  1.0000E+30   100.0       100.0      1.0000E+30  1.0000E+30  1.0000E+30
       1.0000E+30  1.0000E+30   100.0       100.0       100.1       100.2       100.2       100.2       100.2       100.3    
        100.4       100.5       100.7       100.8       100.9       101.0       101.1       101.2       101.3       101.3    
        101.4       101.4       101.4       101.4       101.4       101.4       101.4       101.4       101.4       101.3    
        101.3       101.2       101.1       101.1       101.0       100.9       100.8       100.7       100.6       100.4    
        100.3       100.1       100.0      1.0000E+30  1.0000E+30  1.0000E+30  1.0000E+30  1.0000E+30  1.0000E+30  1.0000E+30
       1.0000E+30  1.0000E+30  1.0000E+30  1.0000E+30  1.0000E+30  1.0000E+30  1.0000E+30  1.0000E+30  1.0000E+30  1.0000E+30
  22   1.0000E+30  1.0000E+30  1.0000E+30  1.0000E+30  1.0000E+30  1.0000E+30  1.0000E+30  1.0000E+30  1.0000E+30  1.0000E+30
       1.0000E+30  1.0000E+30   100.0       100.1       100.1       100.2       100.2       100.3       100.3       100.3    
        100.3       100.3       100.3       100.3       100.2       100.2       100.2       100.1       100.0       100.0    
        100.0       100.0      1.0000E+30   100.0       100.0       100.0       100.0       100.0       100.0       100.0    
        100.0       100.0       100.0       100.1       100.3       100.3       100.4       100.4       100.5       100.5    
        100.6       100.7       100.8       100.9       101.1       101.2       101.2       101.3       101.4       101.4    
        101.5       101.5       101.5       101.5       101.5       101.5       101.5       101.5       101.4       101.4    
        101.3       101.3       101.2       101.1       101.0       101.0       100.8       100.7       100.6       100.5    
        100.3       100.2       100.0      1.0000E+30  1.0000E+30  1.0000E+30  1.0000E+30  1.0000E+30  1.0000E+30  1.0000E+30
       1.0000E+30  1.0000E+30  1.0000E+30  1.0000E+30  1.0000E+30  1.0000E+30  1.0000E+30  1.0000E+30  1.0000E+30  1.0000E+30
  23   1.0000E+30  1.0000E+30  1.0000E+30  1.0000E+30  1.0000E+30  1.0000E+30  1.0000E+30  1.0000E+30  1.0000E+30  1.0000E+30
       1.0000E+30  1.0000E+30   100.0       100.1       100.2       100.3       100.3       100.3       100.4       100.4    
        100.4       100.4       100.4       100.4       100.4       100.3       100.3       100.2       100.1       100.0    
        100.0       100.0       100.0       100.0       100.1       100.1       100.1       100.0       100.0       100.1    
        100.0       100.0       100.2       100.3       100.4       100.5       100.6       100.6       100.7       100.7    
        100.8       100.9       101.0       101.1       101.2       101.3       101.4       101.4       101.5       101.5    
        101.6       101.6       101.6       101.6       101.6       101.6       101.6       101.5       101.5       101.5    
        101.4       101.3       101.3       101.2       101.1       101.0       100.9       100.8       100.7       100.5    
        100.4       100.2       100.0       100.0      1.0000E+30  1.0000E+30  1.0000E+30  1.0000E+30  1.0000E+30  1.0000E+30
       1.0000E+30  1.0000E+30  1.0000E+30  1.0000E+30  1.0000E+30  1.0000E+30  1.0000E+30  1.0000E+30  1.0000E+30  1.0000E+30
  24   1.0000E+30  1.0000E+30  1.0000E+30  1.0000E+30  1.0000E+30  1.0000E+30  1.0000E+30  1.0000E+30  1.0000E+30  1.0000E+30
       1.0000E+30   100.0       100.0       100.1       100.2       100.3       100.4       100.4       100.4       100.5    
        100.5       100.5       100.5       100.5       100.5       100.4       100.4       100.4       100.3       100.2    
        100.2       100.2       100.2       100.2       100.3       100.3       100.3       100.2       100.2       100.3    
        100.3       100.3       100.4       100.5       100.6       100.7       100.7       100.8       100.8       100.9    
        101.0       101.1       101.1       101.2       101.3       101.4       101.5       101.5       101.6       101.6    
        101.6       101.7       101.7       101.7       101.7       101.7       101.6       101.6       101.6       101.5    
        101.5       101.4       101.3       101.3       101.2       101.1       101.0       100.8       100.7       100.6    
        100.4       100.3       100.1       100.0      1.0000E+30  1.0000E+30  1.0000E+30  1.0000E+30  1.0000E+30  1.0000E+30
       1.0000E+30  1.0000E+30  1.0000E+30  1.0000E+30  1.0000E+30  1.0000E+30  1.0000E+30  1.0000E+30  1.0000E+30  1.0000E+30
  25   1.0000E+30   100.0       100.0      1.0000E+30  1.0000E+30   100.0       100.0      1.0000E+30  1.0000E+30  1.0000E+30
       1.0000E+30   100.0       100.1       100.2       100.3       100.4       100.4       100.5       100.5       100.6    
        100.6       100.6       100.6       100.6       100.6       100.6       100.5       100.5       100.5       100.4    
        100.4       100.4       100.4       100.4       100.4       100.5       100.5       100.5       100.5       100.5    
        100.5       100.5       100.6       100.7       100.8       100.8       100.9       101.0       101.0       101.1    
        101.2       101.2       101.3       101.4       101.4       101.5       101.6       101.6       101.7       101.7    
        101.7       101.8       101.8       101.8       101.8       101.7       101.7       101.7       101.6       101.6    
        101.5       101.5       101.4       101.3       101.2       101.1       101.0       100.9       100.8       100.6    
        100.5       100.3       100.2       100.0      1.0000E+30  1.0000E+30  1.0000E+30  1.0000E+30  1.0000E+30  1.0000E+30
       1.0000E+30  1.0000E+30  1.0000E+30  1.0000E+30  1.0000E+30  1.0000E+30  1.0000E+30  1.0000E+30  1.0000E+30  1.0000E+30
  26   1.0000E+30   100.0       100.0       100.0       100.0       100.0       100.0       100.0      1.0000E+30  1.0000E+30
       1.0000E+30   100.0       100.1       100.3       100.4       100.4       100.5       100.6       100.6       100.6    
        100.7       100.7       100.7       100.7       100.7       100.7       100.7       100.6       100.6       100.6    
        100.6       100.6       100.6       100.6       100.6       100.6       100.6       100.6       100.7       100.7    
        100.7       100.8       100.8       100.9       100.9       101.0       101.1       101.1       101.2       101.2    
        101.3       101.4       101.4       101.5       101.6       101.6       101.7       101.7       101.8       101.8    
        101.8       101.8       101.8       101.8       101.8       101.8       101.8       101.8       101.7       101.7    
        101.6       101.5       101.5       101.4       101.3       101.2       101.1       100.9       100.8       100.7    
        100.5       100.4       100.2       100.0      1.0000E+30  1.0000E+30  1.0000E+30  1.0000E+30  1.0000E+30  1.0000E+30
       1.0000E+30  1.0000E+30  1.0000E+30  1.0000E+30  1.0000E+30  1.0000E+30  1.0000E+30  1.0000E+30  1.0000E+30  1.0000E+30
  27    100.0       100.0       100.0       100.0       100.0       100.0       100.0       100.0       100.0       100.0    
        100.0       100.0       100.2       100.3       100.4       100.5       100.6       100.6       100.7       100.7    
        100.7       100.8       100.8       100.8       100.8       100.8       100.8       100.8       100.8       100.8    
        100.8       100.8       100.8       100.8       100.8       100.8       100.8       100.8       100.8       100.9    
        100.9       100.9       101.0       101.1       101.1       101.2       101.2       101.3       101.3       101.4    
        101.5       101.5       101.6       101.6       101.7       101.7       101.8       101.8       101.9       101.9    
        101.9       101.9       101.9       101.9       101.9       101.9       101.9       101.8       101.8       101.7    
        101.7       101.6       101.5       101.4       101.3       101.2       101.1       101.0       100.9       100.7    
        100.6       100.4       100.2       100.0       100.0      1.0000E+30  1.0000E+30  1.0000E+30  1.0000E+30  1.0000E+30
       1.0000E+30  1.0000E+30  1.0000E+30  1.0000E+30  1.0000E+30  1.0000E+30  1.0000E+30  1.0000E+30  1.0000E+30  1.0000E+30
  28    100.0       100.0       100.0       100.1       100.1       100.1       100.1       100.1       100.1       100.1    
        100.1       100.2       100.3       100.4       100.5       100.6       100.6       100.7       100.8       100.8    
        100.8       100.9       100.9       100.9       100.9       100.9       100.9       100.9       100.9       100.9    
        100.9       100.9       100.9       100.9       100.9       101.0       101.0       101.0       101.0       101.1    
        101.1       101.1       101.2       101.2       101.3       101.3       101.4       101.4       101.5       101.5    
        101.6       101.7       101.7       101.8       101.8       101.9       101.9       101.9       102.0       102.0    
        102.0       102.0       102.0       102.0       102.0       102.0       101.9       101.9       101.8       101.8    
        101.7       101.7       101.6       101.5       101.4       101.3       101.2       101.1       100.9       100.8    
        100.6       100.5       100.3       100.1       100.0      1.0000E+30  1.0000E+30  1.0000E+30  1.0000E+30  1.0000E+30
       1.0000E+30  1.0000E+30  1.0000E+30  1.0000E+30  1.0000E+30  1.0000E+30  1.0000E+30  1.0000E+30  1.0000E+30  1.0000E+30
  29    100.0       100.0       100.0       100.1       100.1       100.1       100.2       100.2       100.2       100.2    
        100.3       100.3       100.4       100.5       100.6       100.7       100.7       100.8       100.8       100.9    
        100.9       100.9       101.0       101.0       101.0       101.0       101.0       101.0       101.0       101.0    
        101.0       101.1       101.1       101.1       101.1       101.1       101.1       101.2       101.2       101.2    
        101.3       101.3       101.3       101.4       101.4       101.5       101.5       101.6       101.6       101.7    
        101.7       101.8       101.8       101.9       101.9       102.0       102.0       102.0       102.0       102.1    
        102.1       102.1       102.1       102.1       102.1       102.0       102.0       102.0       101.9       101.8    
        101.8       101.7       101.6       101.5       101.4       101.3       101.2       101.1       101.0       100.8    
        100.7       100.5       100.4       100.2       100.0       100.0      1.0000E+30  1.0000E+30  1.0000E+30  1.0000E+30
       1.0000E+30  1.0000E+30  1.0000E+30  1.0000E+30  1.0000E+30  1.0000E+30  1.0000E+30  1.0000E+30  1.0000E+30  1.0000E+30
  30    100.0       100.0       100.0       100.1       100.1       100.2       100.2       100.2       100.3       100.3    
        100.4       100.4       100.5       100.6       100.7       100.7       100.8       100.8       100.9       100.9    
        101.0       101.0       101.1       101.1       101.1       101.1       101.1       101.1       101.2       101.2    
        101.2       101.2       101.2       101.2       101.2       101.3       101.3       101.3       101.3       101.4    
        101.4       101.4       101.5       101.5       101.6       101.6       101.7       101.7       101.8       101.8    
        101.9       101.9       101.9       102.0       102.0       102.1       102.1       102.1       102.1       102.1    
        102.2       102.2       102.2       102.1       102.1       102.1       102.1       102.0       102.0       101.9    
        101.8       101.8       101.7       101.6       101.5       101.4       101.3       101.2       101.0       100.9    
        100.7       100.6       100.4       100.2       100.1       100.0      1.0000E+30  1.0000E+30  1.0000E+30  1.0000E+30
       1.0000E+30  1.0000E+30  1.0000E+30  1.0000E+30  1.0000E+30  1.0000E+30  1.0000E+30  1.0000E+30  1.0000E+30  1.0000E+30
  31   1.0000E+30   100.0       100.0       100.1       100.1       100.2       100.2       100.3       100.3       100.4    
        100.4       100.5       100.6       100.6       100.7       100.8       100.9       100.9       101.0       101.0    
        101.1       101.1       101.1       101.2       101.2       101.2       101.2       101.3       101.3       101.3    
        101.3       101.3       101.3       101.4       101.4       101.4       101.4       101.5       101.5       101.5    
        101.6       101.6       101.6       101.7       101.7       101.8       101.8       101.8       101.9       101.9    
        102.0       102.0       102.1       102.1       102.1       102.2       102.2       102.2       102.2       102.2    
        102.2       102.2       102.2       102.2       102.2       102.2       102.1       102.1       102.0       102.0    
        101.9       101.8       101.7       101.7       101.6       101.4       101.3       101.2       101.1       100.9    
        100.8       100.6       100.5       100.3       100.1       100.0      1.0000E+30  1.0000E+30  1.0000E+30  1.0000E+30
       1.0000E+30  1.0000E+30  1.0000E+30  1.0000E+30  1.0000E+30  1.0000E+30  1.0000E+30  1.0000E+30  1.0000E+30  1.0000E+30
  32   1.0000E+30   100.0       100.0       100.1       100.2       100.2       100.3       100.3       100.4       100.5    
        100.5       100.6       100.6       100.7       100.8       100.9       100.9       101.0       101.0       101.1    
        101.1       101.2       101.2       101.2       101.3       101.3       101.3       101.4       101.4       101.4    
        101.4       101.4       101.5       101.5       101.5       101.5       101.6       101.6       101.6       101.7    
        101.7       101.7       101.8       101.8       101.8       101.9       101.9       102.0       102.0       102.0    
        102.1       102.1       102.2       102.2       102.2       102.3       102.3       102.3       102.3       102.3    
        102.3       102.3       102.3       102.3       102.3       102.2       102.2       102.1       102.1       102.0    
        102.0       101.9       101.8       101.7       101.6       101.5       101.4       101.3       101.1       101.0    
        100.8       100.7       100.5       100.3       100.2       100.0      1.0000E+30  1.0000E+30  1.0000E+30  1.0000E+30
       1.0000E+30  1.0000E+30  1.0000E+30  1.0000E+30  1.0000E+30  1.0000E+30  1.0000E+30  1.0000E+30  1.0000E+30  1.0000E+30
  33    100.0       100.0       100.1       100.1       100.2       100.3       100.3       100.4       100.4       100.5    
        100.6       100.6       100.7       100.8       100.8       100.9       101.0       101.0       101.1       101.2    
        101.2       101.2       101.3       101.3       101.4       101.4       101.4       101.4       101.5       101.5    
        101.5       101.5       101.6       101.6       101.6       101.7       101.7       101.7       101.7       101.8    
        101.8       101.8       101.9       101.9       102.0       102.0       102.0       102.1       102.1       102.2    
        102.2       102.2       102.3       102.3       102.3       102.3       102.4       102.4       102.4       102.4    
        102.4       102.4       102.4       102.3       102.3       102.3       102.2       102.2       102.1       102.1    
        102.0       101.9       101.8       101.8       101.7       101.5       101.4       101.3       101.2       101.0    
        100.9       100.7       100.5       100.4       100.2       100.0      1.0000E+30  1.0000E+30  1.0000E+30  1.0000E+30
       1.0000E+30  1.0000E+30  1.0000E+30  1.0000E+30  1.0000E+30  1.0000E+30  1.0000E+30  1.0000E+30  1.0000E+30  1.0000E+30
  34    100.0       100.0       100.1       100.1       100.2       100.3       100.3       100.4       100.5       100.5    
        100.6       100.7       100.8       100.8       100.9       101.0       101.0       101.1       101.2       101.2    
        101.3       101.3       101.4       101.4       101.4       101.5       101.5       101.5       101.6       101.6    
        101.6       101.7       101.7       101.7       101.7       101.8       101.8       101.8       101.9       101.9    
        101.9       102.0       102.0       102.0       102.1       102.1       102.2       102.2       102.2       102.3    
        102.3       102.3       102.4       102.4       102.4       102.4       102.4       102.5       102.5       102.5    
        102.5       102.4       102.4       102.4       102.4       102.3       102.3       102.3       102.2       102.1    
        102.1       102.0       101.9       101.8       101.7       101.6       101.5       101.4       101.2       101.1    
        100.9       100.8       100.6       100.4       100.2       100.0      1.0000E+30  1.0000E+30  1.0000E+30  1.0000E+30
       1.0000E+30  1.0000E+30  1.0000E+30  1.0000E+30  1.0000E+30  1.0000E+30  1.0000E+30  1.0000E+30  1.0000E+30  1.0000E+30
  35    100.0       100.0       100.1       100.2       100.2       100.3       100.4       100.4       100.5       100.6    
        100.7       100.7       100.8       100.9       101.0       101.0       101.1       101.2       101.2       101.3    
        101.3       101.4       101.4       101.5       101.5       101.5       101.6       101.6       101.7       101.7    
        101.7       101.7       101.8       101.8       101.8       101.9       101.9       101.9       102.0       102.0    
        102.0       102.1       102.1       102.2       102.2       102.2       102.3       102.3       102.3       102.4    
        102.4       102.4       102.4       102.5       102.5       102.5       102.5       102.5       102.5       102.5    
        102.5       102.5       102.5       102.5       102.4       102.4       102.4       102.3       102.3       102.2    
        102.1       102.0       101.9       101.9       101.8       101.6       101.5       101.4       101.3       101.1    
        101.0       100.8       100.6       100.4       100.2       100.0      1.0000E+30  1.0000E+30  1.0000E+30  1.0000E+30
       1.0000E+30  1.0000E+30  1.0000E+30  1.0000E+30  1.0000E+30  1.0000E+30  1.0000E+30  1.0000E+30  1.0000E+30  1.0000E+30
  36    100.0       100.0       100.1       100.2       100.2       100.3       100.4       100.5       100.5       100.6    
        100.7       100.8       100.8       100.9       101.0       101.1       101.1       101.2       101.3       101.3    
        101.4       101.4       101.5       101.5       101.6       101.6       101.7       101.7       101.7       101.8    
        101.8       101.8       101.9       101.9       101.9       102.0       102.0       102.0       102.1       102.1    
        102.1       102.2       102.2       102.3       102.3       102.3       102.4       102.4       102.4       102.5    
        102.5       102.5       102.5       102.6       102.6       102.6       102.6       102.6       102.6       102.6    
        102.6       102.6       102.6       102.5       102.5       102.5       102.4       102.4       102.3       102.2    
        102.2       102.1       102.0       101.9       101.8       101.7       101.6       101.4       101.3       101.2    
        101.0       100.8       100.7       100.5       100.3       100.0       100.0      1.0000E+30  1.0000E+30  1.0000E+30
       1.0000E+30  1.0000E+30  1.0000E+30  1.0000E+30  1.0000E+30  1.0000E+30  1.0000E+30  1.0000E+30  1.0000E+30  1.0000E+30
  37    100.0       100.0       100.1       100.2       100.2       100.3       100.4       100.5       100.6       100.6    
        100.7       100.8       100.9       101.0       101.0       101.1       101.2       101.2       101.3       101.4    
        101.4       101.5       101.5       101.6       101.6       101.7       101.7       101.8       101.8       101.8    
        101.9       101.9       102.0       102.0       102.0       102.1       102.1       102.1       102.2       102.2    
        102.2       102.3       102.3       102.3       102.4       102.4       102.4       102.5       102.5       102.5    
        102.6       102.6       102.6       102.6       102.6       102.7       102.7       102.7       102.7       102.7    
        102.6       102.6       102.6       102.6       102.5       102.5       102.5       102.4       102.4       102.3    
        102.2       102.1       102.0       101.9       101.8       101.7       101.6       101.5       101.4       101.2    
        101.0       100.9       100.7       100.5       100.3       100.1       100.0      1.0000E+30  1.0000E+30  1.0000E+30
       1.0000E+30  1.0000E+30  1.0000E+30  1.0000E+30  1.0000E+30  1.0000E+30  1.0000E+30  1.0000E+30  1.0000E+30  1.0000E+30
  38    100.0       100.0       100.1       100.1       100.2       100.3       100.4       100.5       100.6       100.7    
        100.7       100.8       100.9       101.0       101.1       101.1       101.2       101.3       101.3       101.4    
        101.5       101.5       101.6       101.6       101.7       101.7       101.8       101.8       101.9       101.9    
        102.0       102.0       102.0       102.1       102.1       102.1       102.2       102.2       102.3       102.3    
        102.3       102.4       102.4       102.4       102.5       102.5       102.5       102.6       102.6       102.6    
        102.6       102.7       102.7       102.7       102.7       102.7       102.7       102.7       102.7       102.7    
        102.7       102.7       102.7       102.6       102.6       102.6       102.5       102.5       102.4       102.3    
        102.3       102.2       102.1       102.0       101.9       101.8       101.7       101.5       101.4       101.2    
        101.1       100.9       100.8       100.6       100.4       100.2       100.0      1.0000E+30  1.0000E+30  1.0000E+30
       1.0000E+30  1.0000E+30  1.0000E+30  1.0000E+30  1.0000E+30  1.0000E+30  1.0000E+30  1.0000E+30  1.0000E+30  1.0000E+30
  39   1.0000E+30   100.0       100.0       100.1       100.2       100.3       100.4       100.5       100.6       100.7    
        100.7       100.8       100.9       101.0       101.1       101.2       101.2       101.3       101.4       101.5    
        101.5       101.6       101.6       101.7       101.7       101.8       101.8       101.9       101.9       102.0    
        102.0       102.1       102.1       102.1       102.2       102.2       102.3       102.3       102.3       102.4    
        102.4       102.4       102.5       102.5       102.5       102.6       102.6       102.6       102.7       102.7    
        102.7       102.7       102.8       102.8       102.8       102.8       102.8       102.8       102.8       102.8    
        102.8       102.7       102.7       102.7       102.6       102.6       102.6       102.5       102.4       102.4    
        102.3       102.2       102.1       102.0       101.9       101.8       101.7       101.6       101.4       101.3    
        101.1       101.0       100.8       100.6       100.4       100.2       100.0      1.0000E+30  1.0000E+30  1.0000E+30
       1.0000E+30  1.0000E+30  1.0000E+30  1.0000E+30  1.0000E+30  1.0000E+30  1.0000E+30  1.0000E+30  1.0000E+30  1.0000E+30
  40   1.0000E+30  1.0000E+30   100.0       100.1       100.2       100.3       100.4       100.5       100.6       100.7    
        100.8       100.9       100.9       101.0       101.1       101.2       101.3       101.3       101.4       101.5    
        101.5       101.6       101.7       101.7       101.8       101.8       101.9       101.9       102.0       102.0    
        102.1       102.1       102.2       102.2       102.3       102.3       102.3       102.4       102.4       102.4    
        102.5       102.5       102.6       102.6       102.6       102.7       102.7       102.7       102.7       102.8    
        102.8       102.8       102.8       102.8       102.8       102.8       102.8       102.8       102.8       102.8    
        102.8       102.8       102.8       102.7       102.7       102.6       102.6       102.5       102.5       102.4    
        102.3       102.3       102.2       102.1       102.0       101.9       101.7       101.6       101.5       101.3    
        101.2       101.0       100.8       100.7       100.5       100.2       100.0      1.0000E+30  1.0000E+30  1.0000E+30
       1.0000E+30  1.0000E+30  1.0000E+30  1.0000E+30  1.0000E+30  1.0000E+30  1.0000E+30  1.0000E+30  1.0000E+30  1.0000E+30
  41   1.0000E+30  1.0000E+30   100.0       100.0       100.1       100.2       100.3       100.4       100.6       100.7    
        100.8       100.9       101.0       101.0       101.1       101.2       101.3       101.4       101.4       101.5    
        101.6       101.6       101.7       101.8       101.8       101.9       101.9       102.0       102.0       102.1    
        102.1       102.2       102.2       102.3       102.3       102.4       102.4       102.4       102.5       102.5    
        102.6       102.6       102.6       102.7       102.7       102.7       102.8       102.8       102.8       102.8    
        102.8       102.9       102.9       102.9       102.9       102.9       102.9       102.9       102.9       102.9    
        102.9       102.8       102.8       102.8       102.7       102.7       102.6       102.6       102.5       102.5    
        102.4       102.3       102.2       102.1       102.0       101.9       101.8       101.7       101.5       101.4    
        101.2       101.1       100.9       100.7       100.5       100.3       100.0       100.0      1.0000E+30  1.0000E+30
       1.0000E+30  1.0000E+30  1.0000E+30  1.0000E+30  1.0000E+30  1.0000E+30  1.0000E+30  1.0000E+30  1.0000E+30  1.0000E+30
  42   1.0000E+30  1.0000E+30  1.0000E+30   100.0       100.1       100.2       100.3       100.4       100.5       100.7    
        100.8       100.9       101.0       101.0       101.1       101.2       101.3       101.4       101.5       101.5    
        101.6       101.7       101.7       101.8       101.9       101.9       102.0       102.0       102.1       102.1    
        102.2       102.2       102.3       102.3       102.4       102.4       102.5       102.5       102.5       102.6    
        102.6       102.7       102.7       102.7       102.8       102.8       102.8       102.8       102.9       102.9    
        102.9       102.9       102.9       102.9       102.9       102.9       102.9       102.9       102.9       102.9    
        102.9       102.9       102.8       102.8       102.8       102.7       102.7       102.6       102.6       102.5    
        102.4       102.3       102.2       102.2       102.0       101.9       101.8       101.7       101.6       101.4    
        101.3       101.1       100.9       100.8       100.6       100.3       100.1       100.0      1.0000E+30  1.0000E+30
       1.0000E+30  1.0000E+30  1.0000E+30  1.0000E+30  1.0000E+30  1.0000E+30  1.0000E+30  1.0000E+30  1.0000E+30  1.0000E+30
  43   1.0000E+30  1.0000E+30  1.0000E+30   100.0       100.0       100.1       100.3       100.4       100.5       100.6    
        100.8       100.9       101.0       101.1       101.1       101.2       101.3       101.4       101.5       101.5    
        101.6       101.7       101.8       101.8       101.9       101.9       102.0       102.1       102.1       102.2    
        102.2       102.3       102.3       102.4       102.4       102.5       102.5       102.6       102.6       102.6    
        102.7       102.7       102.7       102.8       102.8       102.8       102.9       102.9       102.9       102.9    
        103.0       103.0       103.0       103.0       103.0       103.0       103.0       103.0       103.0       103.0    
        102.9       102.9       102.9       102.9       102.8       102.8       102.7       102.7       102.6       102.5    
        102.4       102.4       102.3       102.2       102.1       102.0       101.9       101.7       101.6       101.5    
        101.3       101.2       101.0       100.8       100.6       100.4       100.2       100.0      1.0000E+30  1.0000E+30
       1.0000E+30  1.0000E+30  1.0000E+30  1.0000E+30  1.0000E+30  1.0000E+30  1.0000E+30  1.0000E+30  1.0000E+30  1.0000E+30
  44   1.0000E+30  1.0000E+30  1.0000E+30  1.0000E+30   100.0       100.0       100.2       100.4       100.5       100.6    
        100.7       100.9       101.0       101.1       101.1       101.2       101.3       101.4       101.5       101.6    
        101.6       101.7       101.8       101.8       101.9       102.0       102.0       102.1       102.1       102.2    
        102.3       102.3       102.4       102.4       102.5       102.5       102.6       102.6       102.6       102.7    
        102.7       102.8       102.8       102.8       102.9       102.9       102.9       102.9       103.0       103.0    
        103.0       103.0       103.0       103.0       103.0       103.0       103.0       103.0       103.0       103.0    
        103.0       103.0       102.9       102.9       102.8       102.8       102.7       102.7       102.6       102.6    
        102.5       102.4       102.3       102.2       102.1       102.0       101.9       101.8       101.6       101.5    
        101.4       101.2       101.0       100.9       100.7       100.5       100.3       100.0       100.0      1.0000E+30
[...]
        101.2       101.1       101.0       100.9       100.7       100.6       100.4       100.2       100.0      1.0000E+30
       1.0000E+30  1.0000E+30  1.0000E+30  1.0000E+30  1.0000E+30  1.0000E+30  1.0000E+30  1.0000E+30  1.0000E+30  1.0000E+30
       1.0000E+30  1.0000E+30  1.0000E+30  1.0000E+30  1.0000E+30  1.0000E+30  1.0000E+30  1.0000E+30  1.0000E+30  1.0000E+30
       1.0000E+30  1.0000E+30  1.0000E+30  1.0000E+30  1.0000E+30  1.0000E+30  1.0000E+30  1.0000E+30  1.0000E+30  1.0000E+30
  87   1.0000E+30  1.0000E+30  1.0000E+30  1.0000E+30  1.0000E+30  1.0000E+30  1.0000E+30  1.0000E+30  1.0000E+30  1.0000E+30
       1.0000E+30  1.0000E+30  1.0000E+30  1.0000E+30  1.0000E+30  1.0000E+30  1.0000E+30  1.0000E+30  1.0000E+30  1.0000E+30
       1.0000E+30  1.0000E+30  1.0000E+30  1.0000E+30  1.0000E+30  1.0000E+30  1.0000E+30  1.0000E+30  1.0000E+30   100.0    
        100.1       100.2       100.3       100.3       100.4       100.5       100.6       100.6       100.6       100.7    
        100.7       100.8       100.9       101.0       101.0       101.1       101.2       101.2       101.3       101.3    
        101.3       101.3       101.3       101.3       101.3       101.3       101.3       101.2       101.2       101.1    
        101.1       101.0       100.9       100.8       100.6       100.5       100.3       100.1       100.0      1.0000E+30
       1.0000E+30  1.0000E+30  1.0000E+30  1.0000E+30  1.0000E+30  1.0000E+30  1.0000E+30  1.0000E+30  1.0000E+30  1.0000E+30
       1.0000E+30  1.0000E+30  1.0000E+30  1.0000E+30  1.0000E+30  1.0000E+30  1.0000E+30  1.0000E+30  1.0000E+30  1.0000E+30
       1.0000E+30  1.0000E+30  1.0000E+30  1.0000E+30  1.0000E+30  1.0000E+30  1.0000E+30  1.0000E+30  1.0000E+30  1.0000E+30
  88   1.0000E+30  1.0000E+30  1.0000E+30  1.0000E+30  1.0000E+30  1.0000E+30  1.0000E+30  1.0000E+30  1.0000E+30  1.0000E+30
       1.0000E+30  1.0000E+30  1.0000E+30  1.0000E+30  1.0000E+30  1.0000E+30  1.0000E+30  1.0000E+30  1.0000E+30  1.0000E+30
       1.0000E+30  1.0000E+30  1.0000E+30  1.0000E+30  1.0000E+30  1.0000E+30  1.0000E+30  1.0000E+30  1.0000E+30   100.0    
        100.1       100.1       100.2       100.3       100.4       100.4       100.5       100.5       100.5       100.6    
        100.6       100.7       100.7       100.8       100.9       101.0       101.0       101.1       101.2       101.2    
        101.2       101.2       101.2       101.2       101.2       101.2       101.2       101.2       101.1       101.1    
        101.0       100.9       100.8       100.7       100.6       100.4       100.2       100.0       100.0      1.0000E+30
       1.0000E+30  1.0000E+30  1.0000E+30  1.0000E+30  1.0000E+30  1.0000E+30  1.0000E+30  1.0000E+30  1.0000E+30  1.0000E+30
       1.0000E+30  1.0000E+30  1.0000E+30  1.0000E+30  1.0000E+30  1.0000E+30  1.0000E+30  1.0000E+30  1.0000E+30  1.0000E+30
       1.0000E+30  1.0000E+30  1.0000E+30  1.0000E+30  1.0000E+30  1.0000E+30  1.0000E+30  1.0000E+30  1.0000E+30  1.0000E+30
  89   1.0000E+30  1.0000E+30  1.0000E+30  1.0000E+30  1.0000E+30  1.0000E+30  1.0000E+30  1.0000E+30  1.0000E+30  1.0000E+30
       1.0000E+30  1.0000E+30  1.0000E+30  1.0000E+30  1.0000E+30  1.0000E+30  1.0000E+30  1.0000E+30  1.0000E+30  1.0000E+30
       1.0000E+30  1.0000E+30  1.0000E+30  1.0000E+30  1.0000E+30  1.0000E+30  1.0000E+30  1.0000E+30  1.0000E+30   100.0    
        100.0       100.1       100.2       100.2       100.3       100.3       100.4       100.4       100.4       100.4    
        100.4       100.5       100.6       100.7       100.8       100.9       100.9       101.0       101.1       101.1    
        101.1       101.1       101.2       101.2       101.1       101.1       101.1       101.1       101.0       101.0    
        100.9       100.8       100.7       100.6       100.5       100.4       100.2       100.0      1.0000E+30  1.0000E+30
       1.0000E+30  1.0000E+30  1.0000E+30  1.0000E+30  1.0000E+30  1.0000E+30  1.0000E+30  1.0000E+30  1.0000E+30  1.0000E+30
       1.0000E+30  1.0000E+30  1.0000E+30  1.0000E+30  1.0000E+30  1.0000E+30  1.0000E+30  1.0000E+30  1.0000E+30  1.0000E+30
       1.0000E+30  1.0000E+30  1.0000E+30  1.0000E+30  1.0000E+30  1.0000E+30  1.0000E+30  1.0000E+30  1.0000E+30  1.0000E+30
  90   1.0000E+30  1.0000E+30  1.0000E+30  1.0000E+30  1.0000E+30  1.0000E+30  1.0000E+30  1.0000E+30  1.0000E+30  1.0000E+30
       1.0000E+30  1.0000E+30  1.0000E+30  1.0000E+30  1.0000E+30  1.0000E+30  1.0000E+30  1.0000E+30  1.0000E+30  1.0000E+30
       1.0000E+30  1.0000E+30  1.0000E+30  1.0000E+30  1.0000E+30  1.0000E+30  1.0000E+30  1.0000E+30  1.0000E+30   100.0    
        100.0       100.0       100.1       100.2       100.2       100.3       100.3       100.3       100.3       100.2    
        100.2       100.3       100.4       100.6       100.7       100.8       100.8       100.9       101.0       101.0    
        101.0       101.0       101.1       101.1       101.1       101.0       101.0       101.0       100.9       100.9    
        100.8       100.7       100.7       100.6       100.4       100.3       100.2       100.0      1.0000E+30  1.0000E+30
       1.0000E+30  1.0000E+30  1.0000E+30  1.0000E+30  1.0000E+30  1.0000E+30  1.0000E+30  1.0000E+30  1.0000E+30  1.0000E+30
       1.0000E+30  1.0000E+30  1.0000E+30  1.0000E+30  1.0000E+30  1.0000E+30  1.0000E+30  1.0000E+30  1.0000E+30  1.0000E+30
       1.0000E+30  1.0000E+30  1.0000E+30  1.0000E+30  1.0000E+30  1.0000E+30  1.0000E+30  1.0000E+30  1.0000E+30  1.0000E+30
  91   1.0000E+30  1.0000E+30  1.0000E+30  1.0000E+30  1.0000E+30  1.0000E+30  1.0000E+30  1.0000E+30  1.0000E+30  1.0000E+30
       1.0000E+30  1.0000E+30  1.0000E+30  1.0000E+30  1.0000E+30  1.0000E+30  1.0000E+30  1.0000E+30  1.0000E+30  1.0000E+30
       1.0000E+30  1.0000E+30  1.0000E+30  1.0000E+30  1.0000E+30  1.0000E+30  1.0000E+30  1.0000E+30  1.0000E+30   100.0    
        100.0       100.0       100.1       100.1       100.2       100.2       100.2       100.2       100.1       100.0    
        100.0       100.0       100.3       100.4       100.6       100.7       100.7       100.8       100.9       100.9    
        100.9       100.9       101.0       101.0       101.0       100.9       100.9       100.9       100.8       100.8    
        100.7       100.7       100.6       100.5       100.4       100.3       100.1       100.0      1.0000E+30  1.0000E+30
       1.0000E+30  1.0000E+30  1.0000E+30  1.0000E+30  1.0000E+30  1.0000E+30  1.0000E+30  1.0000E+30  1.0000E+30  1.0000E+30
       1.0000E+30  1.0000E+30  1.0000E+30  1.0000E+30  1.0000E+30  1.0000E+30  1.0000E+30  1.0000E+30  1.0000E+30  1.0000E+30
       1.0000E+30  1.0000E+30  1.0000E+30  1.0000E+30  1.0000E+30  1.0000E+30  1.0000E+30  1.0000E+30  1.0000E+30  1.0000E+30
  92   1.0000E+30  1.0000E+30  1.0000E+30  1.0000E+30  1.0000E+30  1.0000E+30  1.0000E+30  1.0000E+30  1.0000E+30  1.0000E+30
       1.0000E+30  1.0000E+30  1.0000E+30  1.0000E+30  1.0000E+30  1.0000E+30  1.0000E+30  1.0000E+30  1.0000E+30  1.0000E+30
       1.0000E+30  1.0000E+30  1.0000E+30  1.0000E+30  1.0000E+30  1.0000E+30  1.0000E+30  1.0000E+30  1.0000E+30   100.0    
        100.0       100.0       100.0       100.1       100.1       100.1       100.1       100.1       100.1       100.0    
       1.0000E+30   100.0       100.2       100.3       100.4       100.5       100.6       100.7       100.8       100.8    
        100.8       100.8       100.9       100.9       100.9       100.8       100.8       100.8       100.8       100.7    
        100.7       100.6       100.5       100.4       100.3       100.2       100.1       100.0      1.0000E+30  1.0000E+30
       1.0000E+30  1.0000E+30  1.0000E+30  1.0000E+30  1.0000E+30  1.0000E+30  1.0000E+30  1.0000E+30  1.0000E+30  1.0000E+30
       1.0000E+30  1.0000E+30  1.0000E+30  1.0000E+30  1.0000E+30  1.0000E+30  1.0000E+30  1.0000E+30  1.0000E+30  1.0000E+30
       1.0000E+30  1.0000E+30  1.0000E+30  1.0000E+30  1.0000E+30  1.0000E+30  1.0000E+30  1.0000E+30  1.0000E+30  1.0000E+30
  93   1.0000E+30  1.0000E+30  1.0000E+30  1.0000E+30  1.0000E+30  1.0000E+30  1.0000E+30  1.0000E+30  1.0000E+30  1.0000E+30
       1.0000E+30  1.0000E+30  1.0000E+30  1.0000E+30  1.0000E+30  1.0000E+30  1.0000E+30  1.0000E+30  1.0000E+30  1.0000E+30
       1.0000E+30  1.0000E+30  1.0000E+30  1.0000E+30  1.0000E+30  1.0000E+30  1.0000E+30  1.0000E+30  1.0000E+30  1.0000E+30
       1.0000E+30   100.0       100.0       100.0       100.1       100.1       100.1       100.0       100.0       100.0    
       1.0000E+30   100.0       100.1       100.2       100.3       100.4       100.5       100.6       100.7       100.7    
        100.7       100.7       100.8       100.8       100.8       100.8       100.7       100.7       100.7       100.6    
        100.6       100.5       100.4       100.4       100.3       100.2       100.0       100.0      1.0000E+30  1.0000E+30
       1.0000E+30  1.0000E+30  1.0000E+30  1.0000E+30  1.0000E+30  1.0000E+30  1.0000E+30  1.0000E+30  1.0000E+30  1.0000E+30
       1.0000E+30  1.0000E+30  1.0000E+30  1.0000E+30  1.0000E+30  1.0000E+30  1.0000E+30  1.0000E+30  1.0000E+30  1.0000E+30
       1.0000E+30  1.0000E+30  1.0000E+30  1.0000E+30  1.0000E+30  1.0000E+30  1.0000E+30  1.0000E+30  1.0000E+30  1.0000E+30
  94   1.0000E+30  1.0000E+30  1.0000E+30  1.0000E+30  1.0000E+30  1.0000E+30  1.0000E+30  1.0000E+30  1.0000E+30  1.0000E+30
       1.0000E+30  1.0000E+30  1.0000E+30  1.0000E+30  1.0000E+30  1.0000E+30  1.0000E+30  1.0000E+30  1.0000E+30  1.0000E+30
       1.0000E+30  1.0000E+30  1.0000E+30  1.0000E+30  1.0000E+30  1.0000E+30  1.0000E+30  1.0000E+30  1.0000E+30  1.0000E+30
       1.0000E+30  1.0000E+30   100.0       100.0       100.0       100.0       100.0       100.0       100.0      1.0000E+30
       1.0000E+30   100.0       100.1       100.1       100.3       100.4       100.4       100.5       100.6       100.6    
        100.6       100.7       100.7       100.7       100.7       100.7       100.6       100.6       100.6       100.5    
        100.5       100.4       100.4       100.3       100.2       100.1       100.0      1.0000E+30  1.0000E+30  1.0000E+30
       1.0000E+30  1.0000E+30  1.0000E+30  1.0000E+30  1.0000E+30  1.0000E+30  1.0000E+30  1.0000E+30  1.0000E+30  1.0000E+30
       1.0000E+30  1.0000E+30  1.0000E+30  1.0000E+30  1.0000E+30  1.0000E+30  1.0000E+30  1.0000E+30  1.0000E+30  1.0000E+30
       1.0000E+30  1.0000E+30  1.0000E+30  1.0000E+30  1.0000E+30  1.0000E+30  1.0000E+30  1.0000E+30  1.0000E+30  1.0000E+30
  95   1.0000E+30  1.0000E+30  1.0000E+30  1.0000E+30  1.0000E+30  1.0000E+30  1.0000E+30  1.0000E+30  1.0000E+30  1.0000E+30
       1.0000E+30  1.0000E+30  1.0000E+30  1.0000E+30  1.0000E+30  1.0000E+30  1.0000E+30  1.0000E+30  1.0000E+30  1.0000E+30
       1.0000E+30  1.0000E+30  1.0000E+30  1.0000E+30  1.0000E+30  1.0000E+30  1.0000E+30  1.0000E+30  1.0000E+30  1.0000E+30
       1.0000E+30  1.0000E+30  1.0000E+30  1.0000E+30   100.0       100.0       100.0      1.0000E+30  1.0000E+30  1.0000E+30
       1.0000E+30   100.0       100.0       100.0       100.2       100.3       100.4       100.4       100.5       100.5    
        100.5       100.5       100.6       100.6       100.6       100.6       100.5       100.5       100.5       100.5    
        100.4       100.4       100.3       100.2       100.2       100.1       100.0      1.0000E+30  1.0000E+30  1.0000E+30
       1.0000E+30  1.0000E+30  1.0000E+30  1.0000E+30  1.0000E+30  1.0000E+30  1.0000E+30  1.0000E+30  1.0000E+30  1.0000E+30
       1.0000E+30  1.0000E+30  1.0000E+30  1.0000E+30  1.0000E+30  1.0000E+30  1.0000E+30  1.0000E+30  1.0000E+30  1.0000E+30
       1.0000E+30  1.0000E+30  1.0000E+30  1.0000E+30  1.0000E+30  1.0000E+30  1.0000E+30  1.0000E+30  1.0000E+30  1.0000E+30
  96   1.0000E+30  1.0000E+30  1.0000E+30  1.0000E+30  1.0000E+30  1.0000E+30  1.0000E+30  1.0000E+30  1.0000E+30  1.0000E+30
       1.0000E+30  1.0000E+30  1.0000E+30  1.0000E+30  1.0000E+30  1.0000E+30  1.0000E+30  1.0000E+30  1.0000E+30  1.0000E+30
       1.0000E+30  1.0000E+30  1.0000E+30  1.0000E+30  1.0000E+30  1.0000E+30  1.0000E+30  1.0000E+30  1.0000E+30  1.0000E+30
       1.0000E+30  1.0000E+30  1.0000E+30  1.0000E+30  1.0000E+30   100.0       100.0      1.0000E+30  1.0000E+30  1.0000E+30
       1.0000E+30  1.0000E+30  1.0000E+30   100.0       100.1       100.2       100.3       100.3       100.4       100.4    
        100.4       100.4       100.5       100.5       100.5       100.5       100.4       100.4       100.4       100.4    
        100.3       100.3       100.2       100.2       100.1       100.1       100.0      1.0000E+30  1.0000E+30  1.0000E+30
       1.0000E+30  1.0000E+30  1.0000E+30  1.0000E+30  1.0000E+30  1.0000E+30  1.0000E+30  1.0000E+30  1.0000E+30  1.0000E+30
       1.0000E+30  1.0000E+30  1.0000E+30  1.0000E+30  1.0000E+30  1.0000E+30  1.0000E+30  1.0000E+30  1.0000E+30  1.0000E+30
       1.0000E+30  1.0000E+30  1.0000E+30  1.0000E+30  1.0000E+30  1.0000E+30  1.0000E+30  1.0000E+30  1.0000E+30  1.0000E+30
  97   1.0000E+30  1.0000E+30  1.0000E+30  1.0000E+30  1.0000E+30  1.0000E+30  1.0000E+30  1.0000E+30  1.0000E+30  1.0000E+30
       1.0000E+30  1.0000E+30  1.0000E+30  1.0000E+30  1.0000E+30  1.0000E+30  1.0000E+30  1.0000E+30  1.0000E+30  1.0000E+30
       1.0000E+30  1.0000E+30  1.0000E+30  1.0000E+30  1.0000E+30  1.0000E+30  1.0000E+30  1.0000E+30  1.0000E+30  1.0000E+30
       1.0000E+30  1.0000E+30  1.0000E+30  1.0000E+30  1.0000E+30  1.0000E+30  1.0000E+30  1.0000E+30  1.0000E+30  1.0000E+30
       1.0000E+30  1.0000E+30  1.0000E+30   100.0       100.0       100.1       100.2       100.2       100.3       100.3    
        100.3       100.3       100.3       100.4       100.4       100.3       100.3       100.3       100.3       100.3    
        100.3       100.2       100.2       100.1       100.1       100.0       100.0      1.0000E+30  1.0000E+30  1.0000E+30
       1.0000E+30  1.0000E+30  1.0000E+30  1.0000E+30  1.0000E+30  1.0000E+30  1.0000E+30  1.0000E+30  1.0000E+30  1.0000E+30
       1.0000E+30  1.0000E+30  1.0000E+30  1.0000E+30  1.0000E+30  1.0000E+30  1.0000E+30  1.0000E+30  1.0000E+30  1.0000E+30
       1.0000E+30  1.0000E+30  1.0000E+30  1.0000E+30  1.0000E+30  1.0000E+30  1.0000E+30  1.0000E+30  1.0000E+30  1.0000E+30
  98   1.0000E+30  1.0000E+30  1.0000E+30  1.0000E+30  1.0000E+30  1.0000E+30  1.0000E+30  1.0000E+30  1.0000E+30  1.0000E+30
       1.0000E+30  1.0000E+30  1.0000E+30  1.0000E+30  1.0000E+30  1.0000E+30  1.0000E+30  1.0000E+30  1.0000E+30  1.0000E+30
       1.0000E+30  1.0000E+30  1.0000E+30  1.0000E+30  1.0000E+30  1.0000E+30  1.0000E+30  1.0000E+30  1.0000E+30  1.0000E+30
       1.0000E+30  1.0000E+30  1.0000E+30  1.0000E+30  1.0000E+30  1.0000E+30  1.0000E+30  1.0000E+30  1.0000E+30  1.0000E+30
       1.0000E+30  1.0000E+30  1.0000E+30   100.0       100.0       100.1       100.1       100.2       100.2       100.2    
        100.2       100.2       100.2       100.2       100.2       100.2       100.2       100.2       100.2       100.2    
        100.2       100.2       100.1       100.1       100.0       100.0      1.0000E+30  1.0000E+30  1.0000E+30  1.0000E+30
       1.0000E+30  1.0000E+30  1.0000E+30  1.0000E+30  1.0000E+30  1.0000E+30  1.0000E+30  1.0000E+30  1.0000E+30  1.0000E+30
       1.0000E+30  1.0000E+30  1.0000E+30  1.0000E+30  1.0000E+30  1.0000E+30  1.0000E+30  1.0000E+30  1.0000E+30  1.0000E+30
       1.0000E+30  1.0000E+30  1.0000E+30  1.0000E+30  1.0000E+30  1.0000E+30  1.0000E+30  1.0000E+30  1.0000E+30  1.0000E+30
  99   1.0000E+30  1.0000E+30  1.0000E+30  1.0000E+30  1.0000E+30  1.0000E+30  1.0000E+30  1.0000E+30  1.0000E+30  1.0000E+30
       1.0000E+30  1.0000E+30  1.0000E+30  1.0000E+30  1.0000E+30  1.0000E+30  1.0000E+30  1.0000E+30  1.0000E+30  1.0000E+30
       1.0000E+30  1.0000E+30  1.0000E+30  1.0000E+30  1.0000E+30  1.0000E+30  1.0000E+30  1.0000E+30  1.0000E+30  1.0000E+30
       1.0000E+30  1.0000E+30  1.0000E+30  1.0000E+30  1.0000E+30  1.0000E+30  1.0000E+30  1.0000E+30  1.0000E+30  1.0000E+30
       1.0000E+30  1.0000E+30  1.0000E+30   100.0       100.0       100.0       100.1       100.1       100.1       100.1    
        100.1       100.1       100.1       100.1       100.1       100.1       100.1       100.1       100.1       100.1    
        100.1       100.1       100.1       100.0       100.0      1.0000E+30  1.0000E+30  1.0000E+30  1.0000E+30  1.0000E+30
       1.0000E+30  1.0000E+30  1.0000E+30  1.0000E+30  1.0000E+30  1.0000E+30  1.0000E+30  1.0000E+30  1.0000E+30  1.0000E+30
       1.0000E+30  1.0000E+30  1.0000E+30  1.0000E+30  1.0000E+30  1.0000E+30  1.0000E+30  1.0000E+30  1.0000E+30  1.0000E+30
       1.0000E+30  1.0000E+30  1.0000E+30  1.0000E+30  1.0000E+30  1.0000E+30  1.0000E+30  1.0000E+30  1.0000E+30  1.0000E+30
 100   1.0000E+30  1.0000E+30  1.0000E+30  1.0000E+30  1.0000E+30  1.0000E+30  1.0000E+30  1.0000E+30  1.0000E+30  1.0000E+30
       1.0000E+30  1.0000E+30  1.0000E+30  1.0000E+30  1.0000E+30  1.0000E+30  1.0000E+30  1.0000E+30  1.0000E+30  1.0000E+30
       1.0000E+30  1.0000E+30  1.0000E+30  1.0000E+30  1.0000E+30  1.0000E+30  1.0000E+30  1.0000E+30  1.0000E+30  1.0000E+30
       1.0000E+30  1.0000E+30  1.0000E+30  1.0000E+30  1.0000E+30  1.0000E+30  1.0000E+30  1.0000E+30  1.0000E+30  1.0000E+30
       1.0000E+30  1.0000E+30  1.0000E+30   100.0       100.0       100.0       100.0       100.0       100.0       100.0    
        100.0       100.0       100.0       100.0       100.0       100.0       100.0       100.0       100.0       100.0    
        100.0       100.0       100.0       100.0      1.0000E+30  1.0000E+30  1.0000E+30  1.0000E+30  1.0000E+30  1.0000E+30
       1.0000E+30  1.0000E+30  1.0000E+30  1.0000E+30  1.0000E+30  1.0000E+30  1.0000E+30  1.0000E+30  1.0000E+30  1.0000E+30
       1.0000E+30  1.0000E+30  1.0000E+30  1.0000E+30  1.0000E+30  1.0000E+30  1.0000E+30  1.0000E+30  1.0000E+30  1.0000E+30
       1.0000E+30  1.0000E+30  1.0000E+30  1.0000E+30  1.0000E+30  1.0000E+30  1.0000E+30  1.0000E+30  1.0000E+30  1.0000E+30

 HEAD WILL BE SAVED ON UNIT 1015 AT END OF TIME STEP    1, STRESS PERIOD    1


  VOLUME BUDGET FOR ENTIRE MODEL AT END OF TIME STEP    1, STRESS PERIOD   1
  ---------------------------------------------------------------------------------------------------

     CUMULATIVE VOLUME      L**3       RATES FOR THIS TIME STEP      L**3/T          PACKAGE NAME    
     ------------------                 ------------------------                     ----------------

           IN:                                      IN:
           ---                                      ---
                RCHA =        7459.5434                  RCHA =        7459.5434     RCHA_0                           
                 CHD =           0.0000                   CHD =           0.0000     CHD_0                            

            TOTAL IN =        7459.5434              TOTAL IN =        7459.5434

          OUT:                                     OUT:
          ----                                     ----
                RCHA =           0.0000                  RCHA =           0.0000     RCHA_0                           
                 CHD =        7461.4933                   CHD =        7461.4933     CHD_0                            

           TOTAL OUT =        7461.4933             TOTAL OUT =        7461.4933

            IN - OUT =          -1.9499              IN - OUT =          -1.9499

 PERCENT DISCREPANCY =          -0.03     PERCENT DISCREPANCY =          -0.03




         TIME SUMMARY AT END OF TIME STEP    1 IN STRESS PERIOD    1
                          TIME STEP LENGTH =    1.00000    
                        STRESS PERIOD TIME =    1.00000    
                     TOTAL SIMULATION TIME =    1.00000    

end timestep

