                                   MODFLOW 6
                U.S. GEOLOGICAL SURVEY MODULAR HYDROLOGIC MODEL
                          GROUNDWATER FLOW MODEL (GWF)
                  VERSION 6.6.0.dev0 (preliminary) 10/18/2024
                               ***DEVELOP MODE***

   MODFLOW 6 compiled Oct 18 2024 02:59:03 with Intel(R) Fortran Intel(R) 64
   Compiler Classic for applications running on Intel(R) 64, Version 2021.7.0
                             Build 20220726_000000

This software is preliminary or provisional and is subject to 
revision. It is being provided to meet the need for timely best 
science. The software has not received final approval by the U.S. 
Geological Survey (USGS). No warranty, expressed or implied, is made 
by the USGS or the U.S. Government as to the functionality of the 
software and related material nor shall the fact of release 
constitute any such warranty. The software is provided on the 
condition that neither the USGS nor the U.S. Government shall be held 
liable for any damages resulting from the authorized or unauthorized 
use of the software.


As a work of the United States Government, this USGS product is 
in the public domain within the United States. You can copy, 
modify, distribute, and perform the work, even for commercial 
purposes, all without asking permission. Additionally, USGS 
waives copyright and related rights in the work worldwide 
through CC0 1.0 Universal Public Domain Dedication 
(https://creativecommons.org/publicdomain/zero/1.0/).

The following GNU Lesser General Public License (LGPL) libraries
are used in this USGS product:

    SPARSKIT version 2.0
      ilut, luson, and qsplit 
      (https://www-users.cse.umn.edu/~saad/software/SPARSKIT/)

    RCM - Reverse Cuthill McKee Ordering
      (https://people.math.sc.edu/Burkardt/f_src/rcm/rcm.html)

    BLAS - Basic Linear Algebra Subprograms Level 1
      (https://people.math.sc.edu/Burkardt/f_src/blas1_d/blas1_d.html)

    SPARSEKIT - Sparse Matrix Utility Package
      amux, dperm, dvperm, rperm, and cperm
      (https://people.sc.fsu.edu/~jburkardt/f77_src/sparsekit/sparsekit.html)

The following BSD-3 License libraries are used in this USGS product:

    Modern Fortran DAG Library
      Copyright (c) 2018, Jacob Williams
      All rights reserved.
      (https://github.com/jacobwilliams/daglib)

MODFLOW 6 compiler options: -Isrc/libmf6core.a.p -Isrc -I../src
-Isrc/libmf6_external.a.p -D_FILE_OFFSET_BITS=64 -warn general -warn
truncated_source -stand=f08 -g -traceback -O2 -fpe0 -no-heap-arrays
-traceback -diag-disable:7416 -diag-disable:7025 -diag-disable:5268 -fPIC
-module src/libmf6core.a.p
-gen-dep=src/libmf6core.a.p/Utilities_compilerversion.F90.o
-gen-depformat=make -o src/libmf6core.a.p/Utilities_compilerversion.F90.o -c

System command used to initiate simulation:
/users/1/souce015/.local/share/flopy/bin/mf6

MODFLOW was compiled using uniform precision.

Real Variables
  KIND: 8
  TINY (smallest non-zero value):    2.225074-308
  HUGE (largest value):    1.797693+308
  PRECISION: 15
  SIZE IN BITS: 64

Integer Variables
  KIND: 4
  HUGE (largest value): 2147483647
  SIZE IN BITS: 32

Long Integer Variables
  KIND: 8
  HUGE (largest value): 9223372036854775807
  SIZE IN BITS: 64

Logical Variables
  KIND: 4
  SIZE IN BITS: 32
 
 NAMEFILE OPTIONS:
    NEWTON-RAPHSON method enabled for the model.
    NEWTON-RAPHSON UNDER-RELAXATION based on the bottom elevation of the model will be applied to the model.
    FLOWS WILL BE SAVED TO BUDGET FILE SPECIFIED IN OUTPUT CONTROL
 END NAMEFILE OPTIONS:

 DIS -- STRUCTURED GRID DISCRETIZATION PACKAGE, VERSION 2 : 3/27/2014 - INPUT READ FROM MEMPATH: __INPUT__/EPM_WSGRID/DIS                          


 NPF -- NODE PROPERTY FLOW PACKAGE, VERSION 1, 3/30/2015 INPUT READ FROM MEMPATH: __INPUT__/EPM_WSGRID/NPF                          


 IC -- Initial Conditions Package, Version 8, 3/28/2015 input read from mempath: __INPUT__/EPM_WSGRID/IC                           


 Setting Discretization Options
    XORIGIN = 557184.4040000000
    YORIGIN = 4867185.870000000
 End Setting Discretization Options

 Setting Discretization Dimensions
    NLAY = 3
    NROW = 50
    NCOL = 50
 End Setting Discretization Dimensions

 Setting Discretization Griddata
    DELR set from input file
    DELC set from input file
    TOP set from input file
    BOTM set from input file
    IDOMAIN set from input file
 End Setting Discretization Griddata


 The specified IDOMAIN results in a reduced number of cells.
 Number of user nodes: 7500
 Number of nodes in solution: 4210


 Setting NPF Options
    Specific discharge will be calculated at cell centers and written to DATA-SPDIS in budget file when requested.
 End Setting NPF Options

 Setting NPF Griddata
    ICELLTYPE set from input file
    K set from input file
    K33 set from input file
    K22 not provided.  Setting K22 = K.
 End Setting NPF Griddata


 DRN   -- DRN PACKAGE, VERSION 8, 2/22/2014 INPUT READ FROM MEMPATH: __INPUT__/EPM_WSGRID/DRN_0                        

 PROCESSING DRN BASE OPTIONS
    FLOWS WILL BE SAVED TO BUDGET FILE SPECIFIED IN OUTPUT CONTROL
 END OF DRN BASE OPTIONS

 PROCESSING DRN OPTIONS
 END OF DRN OPTIONS

 PROCESSING DRN BASE DIMENSIONS
    MAXBOUND =     785
 END OF DRN BASE DIMENSIONS
    STRT set from input file
    BINARY GRID INFORMATION WILL BE WRITTEN TO:
      UNIT NUMBER: 1011
      FILE NAME: EPM_wsgrid.dis.grb

 OPENED EPM_wsgrid.dis.grb
 FILE TYPE:DATA(BINARY)   UNIT 1011   STATUS:REPLACE             
 FORMAT:UNFORMATTED            ACCESS:STREAM              
 ACTION:READWRITE           

      THE LAST TIME STEP WILL BE PRINTED
      THE LAST TIME STEP WILL BE PRINTED
 # File generated by Flopy version 3.8.2 on 11/20/2024 at 12:14:15.

 PROCESSING OC OPTIONS

    BUDGET INFORMATION WILL BE WRITTEN TO:
      UNIT NUMBER: 1012
      FILE NAME: EPM_wsgrid.bud

 OPENED EPM_wsgrid.bud
 FILE TYPE:DATA(BINARY)   UNIT 1012   STATUS:REPLACE             
 FORMAT:UNFORMATTED            ACCESS:STREAM              
 ACTION:READWRITE           

    HEAD INFORMATION WILL BE WRITTEN TO:
      UNIT NUMBER: 1013
      FILE NAME: EPM_wsgrid.hds

 OPENED EPM_wsgrid.hds
 FILE TYPE:DATA(BINARY)   UNIT 1013   STATUS:REPLACE             
 FORMAT:UNFORMATTED            ACCESS:STREAM              
 ACTION:READWRITE           

 END OF OC OPTIONS

start timestep kper="1" kstp="1" mode="normal"


 BEGIN READING OUTPUT CONTROL FOR STRESS PERIOD 1
      ALL TIME STEPS WILL BE SAVED
      ALL TIME STEPS WILL BE SAVED
      ALL TIME STEPS WILL BE PRINTED
      ALL TIME STEPS WILL BE PRINTED

 END READING OUTPUT CONTROL FOR STRESS PERIOD 1
 UBDSV1 SAVING     FLOW-JA-FACE ON UNIT   1012 AT TIME STEP      1, STRESS PERIOD      1
 UBDSV06 SAVING       DATA-SPDIS IN MODEL EPM_WSGRID       PACKAGE NPF             CONNECTED TO MODEL EPM_WSGRID       PACKAGE NPF              ON UNIT   1012 AT TIME STEP      1, STRESS PERIOD      1
 UBDSV06 SAVING              DRN IN MODEL EPM_WSGRID       PACKAGE EPM_WSGRID      CONNECTED TO MODEL EPM_WSGRID       PACKAGE DRN_0            ON UNIT   1012 AT TIME STEP      1, STRESS PERIOD      1
1
  HEAD IN LAYER   1 AT END OF TIME STEP   1 IN STRESS PERIOD    1
  ---------------------------------------------------------------------------

            1           2           3           4           5           6           7           8           9          10
           11          12          13          14          15          16          17          18          19          20
           21          22          23          24          25          26          27          28          29          30
           31          32          33          34          35          36          37          38          39          40
           41          42          43          44          45          46          47          48          49          50
 ........................................................................................................................................................................................................................................................................................................................................................................................................................................................................................................................................................................................................................
   1   1.0000E+30  1.0000E+30  1.0000E+30  1.0000E+30  1.0000E+30  1.0000E+30  1.0000E+30  1.0000E+30  1.0000E+30  1.0000E+30
       1.0000E+30  1.0000E+30  1.0000E+30  1.0000E+30  1.0000E+30  1.0000E+30  1.0000E+30  1.0000E+30  1.0000E+30  1.0000E+30
       1.0000E+30  1.0000E+30  1.0000E+30  1.0000E+30  1.0000E+30  1.0000E+30  1.0000E+30  1.0000E+30  1.0000E+30  1.0000E+30
       1.0000E+30  1.0000E+30  1.0000E+30  1.0000E+30  1.0000E+30  1.0000E+30  1.0000E+30  1.0000E+30  1.0000E+30  1.0000E+30
       1.0000E+30  1.0000E+30  1.0000E+30  1.0000E+30  1.0000E+30  1.0000E+30  1.0000E+30  1.0000E+30  1.0000E+30  1.0000E+30
   2   1.0000E+30  1.0000E+30  1.0000E+30  1.0000E+30  1.0000E+30  1.0000E+30  1.0000E+30  1.0000E+30  1.0000E+30  1.0000E+30
       1.0000E+30  1.0000E+30  1.0000E+30  1.0000E+30  1.0000E+30  1.0000E+30  1.0000E+30  1.0000E+30  1.0000E+30  1.0000E+30
       1.0000E+30  1.0000E+30  1.0000E+30  1.0000E+30  1.0000E+30  1.0000E+30  1.0000E+30  1.0000E+30  1.0000E+30  1.0000E+30
        372.5       372.5       372.5      1.0000E+30  1.0000E+30  1.0000E+30  1.0000E+30  1.0000E+30  1.0000E+30  1.0000E+30
       1.0000E+30  1.0000E+30  1.0000E+30  1.0000E+30  1.0000E+30  1.0000E+30  1.0000E+30  1.0000E+30  1.0000E+30  1.0000E+30
   3   1.0000E+30  1.0000E+30  1.0000E+30  1.0000E+30  1.0000E+30  1.0000E+30  1.0000E+30  1.0000E+30  1.0000E+30  1.0000E+30
       1.0000E+30  1.0000E+30  1.0000E+30  1.0000E+30  1.0000E+30  1.0000E+30  1.0000E+30  1.0000E+30  1.0000E+30  1.0000E+30
       1.0000E+30  1.0000E+30  1.0000E+30  1.0000E+30  1.0000E+30  1.0000E+30  1.0000E+30  1.0000E+30  1.0000E+30   372.5    
        372.5       372.5       372.5      1.0000E+30  1.0000E+30  1.0000E+30  1.0000E+30  1.0000E+30  1.0000E+30  1.0000E+30
       1.0000E+30  1.0000E+30  1.0000E+30  1.0000E+30  1.0000E+30  1.0000E+30  1.0000E+30  1.0000E+30  1.0000E+30  1.0000E+30
   4   1.0000E+30  1.0000E+30  1.0000E+30  1.0000E+30  1.0000E+30  1.0000E+30  1.0000E+30  1.0000E+30  1.0000E+30  1.0000E+30
       1.0000E+30  1.0000E+30  1.0000E+30  1.0000E+30  1.0000E+30  1.0000E+30  1.0000E+30  1.0000E+30  1.0000E+30  1.0000E+30
       1.0000E+30  1.0000E+30  1.0000E+30  1.0000E+30  1.0000E+30  1.0000E+30  1.0000E+30  1.0000E+30   372.5       372.5    
        372.5       372.5       372.5       372.5       372.5      1.0000E+30  1.0000E+30  1.0000E+30  1.0000E+30  1.0000E+30
       1.0000E+30  1.0000E+30  1.0000E+30  1.0000E+30  1.0000E+30  1.0000E+30  1.0000E+30  1.0000E+30  1.0000E+30  1.0000E+30
   5   1.0000E+30  1.0000E+30  1.0000E+30  1.0000E+30  1.0000E+30  1.0000E+30  1.0000E+30  1.0000E+30  1.0000E+30  1.0000E+30
       1.0000E+30  1.0000E+30  1.0000E+30  1.0000E+30  1.0000E+30  1.0000E+30  1.0000E+30  1.0000E+30  1.0000E+30  1.0000E+30
       1.0000E+30  1.0000E+30  1.0000E+30  1.0000E+30  1.0000E+30  1.0000E+30  1.0000E+30   372.5       372.5       372.5    
        372.5       372.5       372.5       372.5       372.5       372.5       372.5       372.5       372.5      1.0000E+30
       1.0000E+30  1.0000E+30  1.0000E+30  1.0000E+30  1.0000E+30  1.0000E+30  1.0000E+30  1.0000E+30  1.0000E+30  1.0000E+30
   6   1.0000E+30  1.0000E+30  1.0000E+30  1.0000E+30  1.0000E+30  1.0000E+30  1.0000E+30  1.0000E+30  1.0000E+30  1.0000E+30
       1.0000E+30  1.0000E+30  1.0000E+30  1.0000E+30  1.0000E+30  1.0000E+30  1.0000E+30  1.0000E+30  1.0000E+30  1.0000E+30
       1.0000E+30  1.0000E+30  1.0000E+30  1.0000E+30  1.0000E+30  1.0000E+30  1.0000E+30   372.5       372.5       372.5    
        372.5       372.5       372.5       372.5       372.5       372.5       372.5       372.5       372.5       372.5    
       1.0000E+30  1.0000E+30  1.0000E+30  1.0000E+30  1.0000E+30  1.0000E+30  1.0000E+30  1.0000E+30  1.0000E+30  1.0000E+30
   7   1.0000E+30  1.0000E+30  1.0000E+30  1.0000E+30  1.0000E+30  1.0000E+30  1.0000E+30  1.0000E+30  1.0000E+30  1.0000E+30
       1.0000E+30  1.0000E+30  1.0000E+30  1.0000E+30  1.0000E+30  1.0000E+30  1.0000E+30  1.0000E+30  1.0000E+30  1.0000E+30
       1.0000E+30  1.0000E+30  1.0000E+30  1.0000E+30  1.0000E+30  1.0000E+30   372.5       372.5       372.5       372.5    
        372.5       372.5       372.5       372.5       372.5       372.5       372.5       372.5       372.5       372.5    
       1.0000E+30  1.0000E+30  1.0000E+30  1.0000E+30  1.0000E+30  1.0000E+30  1.0000E+30  1.0000E+30  1.0000E+30  1.0000E+30
   8   1.0000E+30  1.0000E+30  1.0000E+30  1.0000E+30  1.0000E+30  1.0000E+30  1.0000E+30  1.0000E+30  1.0000E+30  1.0000E+30
       1.0000E+30  1.0000E+30  1.0000E+30  1.0000E+30  1.0000E+30  1.0000E+30  1.0000E+30  1.0000E+30  1.0000E+30  1.0000E+30
       1.0000E+30  1.0000E+30  1.0000E+30  1.0000E+30  1.0000E+30  1.0000E+30  1.0000E+30   372.5       372.5       372.5    
        372.5       372.5       372.5       372.5       372.5       372.5       372.5       372.5       372.5       372.5    
       1.0000E+30  1.0000E+30  1.0000E+30  1.0000E+30  1.0000E+30  1.0000E+30  1.0000E+30  1.0000E+30  1.0000E+30  1.0000E+30
   9   1.0000E+30  1.0000E+30  1.0000E+30  1.0000E+30  1.0000E+30  1.0000E+30  1.0000E+30  1.0000E+30  1.0000E+30  1.0000E+30
       1.0000E+30  1.0000E+30  1.0000E+30  1.0000E+30  1.0000E+30  1.0000E+30  1.0000E+30  1.0000E+30  1.0000E+30  1.0000E+30
       1.0000E+30  1.0000E+30  1.0000E+30  1.0000E+30  1.0000E+30  1.0000E+30  1.0000E+30   372.5       372.5       372.5    
        372.5       372.5       372.5       372.5       372.5       372.5       372.5       372.5       372.5       372.5    
       1.0000E+30  1.0000E+30  1.0000E+30  1.0000E+30  1.0000E+30  1.0000E+30  1.0000E+30  1.0000E+30  1.0000E+30  1.0000E+30
  10   1.0000E+30  1.0000E+30  1.0000E+30  1.0000E+30  1.0000E+30  1.0000E+30  1.0000E+30   372.5       372.5       372.5    
       1.0000E+30  1.0000E+30  1.0000E+30  1.0000E+30  1.0000E+30  1.0000E+30  1.0000E+30  1.0000E+30  1.0000E+30  1.0000E+30
       1.0000E+30  1.0000E+30  1.0000E+30  1.0000E+30  1.0000E+30  1.0000E+30   372.5       372.5       372.5       372.5    
        372.5       372.5       372.5       372.5       372.5       372.5       372.5       372.5       372.5       372.5    
       1.0000E+30  1.0000E+30  1.0000E+30  1.0000E+30  1.0000E+30  1.0000E+30  1.0000E+30  1.0000E+30  1.0000E+30  1.0000E+30
  11   1.0000E+30  1.0000E+30  1.0000E+30  1.0000E+30  1.0000E+30  1.0000E+30  1.0000E+30   372.5       372.5       372.5    
        372.5       372.5       372.5      1.0000E+30  1.0000E+30  1.0000E+30  1.0000E+30  1.0000E+30  1.0000E+30  1.0000E+30
       1.0000E+30  1.0000E+30   372.5       372.5       372.5       372.5       372.5       372.5       372.5       372.5    
        372.5       372.5       372.5       372.5       372.5       372.5       372.5       372.5       372.5       372.5    
        372.5      1.0000E+30  1.0000E+30  1.0000E+30  1.0000E+30  1.0000E+30  1.0000E+30  1.0000E+30  1.0000E+30  1.0000E+30
  12   1.0000E+30  1.0000E+30  1.0000E+30  1.0000E+30  1.0000E+30  1.0000E+30  1.0000E+30   372.5       372.5       372.5    
        372.5       372.5       372.5       372.5      1.0000E+30  1.0000E+30  1.0000E+30   372.5      1.0000E+30  1.0000E+30
       1.0000E+30   372.5       372.5       372.5       372.5       372.5       372.5       372.5       372.5       372.5    
        372.5       372.5       372.5       372.5       372.5       372.5       372.5       372.5       372.5       372.5    
        372.5      1.0000E+30  1.0000E+30  1.0000E+30  1.0000E+30  1.0000E+30  1.0000E+30  1.0000E+30  1.0000E+30  1.0000E+30
  13   1.0000E+30  1.0000E+30  1.0000E+30  1.0000E+30  1.0000E+30  1.0000E+30  1.0000E+30  1.0000E+30   372.5       372.5    
        372.5       372.5       372.5       372.5       372.5       372.5       372.5       372.5       372.5       372.5    
        372.5       372.5       372.5       372.5       372.5       372.5       372.5       372.5       372.5       372.5    
        372.5       372.5       372.5       372.5       372.5       372.5       372.5       372.5       372.5       372.5    
        372.5      1.0000E+30  1.0000E+30  1.0000E+30  1.0000E+30  1.0000E+30  1.0000E+30  1.0000E+30  1.0000E+30  1.0000E+30
  14   1.0000E+30   372.5       372.5      1.0000E+30  1.0000E+30  1.0000E+30   372.5       372.5       372.5       372.5    
        372.5       372.5       372.5       372.5       372.5       372.5       372.5       372.5       372.5       372.5    
        372.5       372.5       372.5       372.5       372.5       372.5       372.5       372.5       372.5       372.5    
        372.5       372.5       372.5       372.5       372.5       372.5       372.5       372.5       372.5       372.5    
        372.5      1.0000E+30  1.0000E+30  1.0000E+30  1.0000E+30  1.0000E+30  1.0000E+30  1.0000E+30  1.0000E+30  1.0000E+30
  15   1.0000E+30   372.5       372.5       372.5       372.5       372.5       372.5       372.5       372.5       372.5    
        372.5       372.5       372.5       372.5       372.5       372.5       372.5       372.5       372.5       372.5    
        372.5       372.5       372.5       372.5       372.5       372.5       372.5       372.5       372.5       372.5    
        372.5       372.5       372.5       372.5       372.5       372.5       372.5       372.5       372.5       372.5    
        372.5       372.5      1.0000E+30  1.0000E+30  1.0000E+30  1.0000E+30  1.0000E+30  1.0000E+30  1.0000E+30  1.0000E+30
  16   1.0000E+30  1.0000E+30   372.5       372.5       372.5       372.5       372.5       372.5       372.5       372.5    
        372.5       372.5       372.5       372.5       372.5       372.5       372.5       372.5       372.5       372.5    
        372.5       372.5       372.5       372.5       372.5       372.5       372.5       372.5       372.5       372.5    
        372.5       372.5       372.5       372.5       372.5       372.5       372.5       372.5       372.5       372.5    
        372.5       372.5      1.0000E+30  1.0000E+30  1.0000E+30  1.0000E+30  1.0000E+30  1.0000E+30  1.0000E+30  1.0000E+30
  17   1.0000E+30   372.5       372.5       372.5       372.5       372.5       372.5       372.5       372.5       372.5    
        372.5       372.5       372.5       372.5       372.5       372.5       372.5       372.5       372.5       372.5    
        372.5       372.5       372.5       372.5       372.5       372.5       372.5       372.5       372.5       372.5    
        372.5       372.5       372.5       372.5       372.5       372.5       372.5       372.5       372.5       372.5    
        372.5       372.5      1.0000E+30  1.0000E+30  1.0000E+30  1.0000E+30  1.0000E+30  1.0000E+30  1.0000E+30  1.0000E+30
  18   1.0000E+30   372.5       372.5       372.5       372.5       372.5       372.5       372.5       372.5       372.5    
        372.5       372.5       372.5       372.5       372.5       372.5       372.5       372.5       372.5       372.5    
        372.5       372.5       372.5       372.5       372.5       372.5       372.5       372.5       372.5       372.5    
        372.5       372.5       372.5       372.5       372.5       372.5       372.5       372.5       372.5       372.5    
        372.5       372.5      1.0000E+30  1.0000E+30  1.0000E+30  1.0000E+30  1.0000E+30  1.0000E+30  1.0000E+30  1.0000E+30
  19   1.0000E+30   372.5       372.5       372.5       372.5       372.5       372.5       372.5       372.5       372.5    
        372.5       372.5       372.5       372.5       372.5       372.5       372.5       372.5       372.5       372.5    
        372.5       372.5       372.5       372.5       372.5       372.5       372.5       372.5       372.5       372.5    
        372.5       372.5       372.5       372.5       372.5       372.5       372.5       372.5       372.5       372.5    
        372.5       372.5       372.5      1.0000E+30  1.0000E+30  1.0000E+30  1.0000E+30  1.0000E+30  1.0000E+30  1.0000E+30
  20   1.0000E+30  1.0000E+30   372.5       372.5       372.5       372.5       372.5       372.5       372.5       372.5    
        372.5       372.5       372.5       372.5       372.5       372.5       372.5       372.5       372.5       372.5    
        372.5       372.5       372.5       372.5       372.5       372.5       372.5       372.5       372.5       372.5    
        372.5       372.5       372.5       372.5       372.5       372.5       372.5       372.5       372.5       372.5    
        372.5       372.5       372.5      1.0000E+30  1.0000E+30  1.0000E+30  1.0000E+30  1.0000E+30  1.0000E+30  1.0000E+30
  21   1.0000E+30  1.0000E+30   372.5       372.5       372.5       372.5       372.5       372.5       372.5       372.5    
        372.5       372.5       372.5       372.5       372.5       372.5       372.5       372.5       372.5       372.5    
        372.5       372.5       372.5       372.5       372.5       372.5       372.5       372.5       372.5       372.5    
        372.5       372.5       372.5       372.5       372.5       372.5       372.5       372.5       372.5       372.5    
        372.5       372.5       372.5      1.0000E+30  1.0000E+30  1.0000E+30  1.0000E+30  1.0000E+30  1.0000E+30  1.0000E+30
  22   1.0000E+30  1.0000E+30  1.0000E+30   372.5       372.5       372.5       372.5       372.5       372.5       372.5    
        372.5       372.5       372.5       372.5       372.5       372.5       372.5       372.5       372.5       372.5    
        372.5       372.5       372.5       372.5       372.5       372.5       372.5       372.5       372.5       372.5    
        372.5       372.5       372.5       372.5       372.5       372.5       372.5       372.5       372.5       372.5    
        372.5       372.5       372.5      1.0000E+30  1.0000E+30  1.0000E+30  1.0000E+30  1.0000E+30  1.0000E+30  1.0000E+30
  23   1.0000E+30  1.0000E+30  1.0000E+30   372.5       372.5       372.5       372.5       372.5       372.5       372.5    
        372.5       372.5       372.5       372.5       372.5       372.5       372.5       372.5       372.5       372.5    
        372.5       372.5       372.5       372.5       372.5       372.5       372.5       372.5       372.5       372.5    
        372.5       372.5       372.5       372.5       372.5       372.5       372.5       372.5       372.5       372.5    
        372.5       372.5       372.5       372.5      1.0000E+30  1.0000E+30  1.0000E+30  1.0000E+30  1.0000E+30  1.0000E+30
  24   1.0000E+30  1.0000E+30  1.0000E+30   372.5       372.5       372.5       372.5       372.5       372.5       372.5    
        372.5       372.5       372.5       372.5       372.5       372.5       372.5       372.5       372.5       372.5    
        372.5       372.5       372.5       372.5       372.5       372.5       372.5       372.5       372.5       372.5    
        372.5       372.5       372.5       372.5       372.5       372.5       372.5       372.5       372.5       372.5    
        372.5       372.5       372.5       372.5      1.0000E+30  1.0000E+30  1.0000E+30  1.0000E+30  1.0000E+30  1.0000E+30
  25   1.0000E+30  1.0000E+30  1.0000E+30   372.5       372.5       372.5       372.5       372.5       372.5       372.5    
        372.5       372.5       372.5       372.5       372.5       372.5       372.5       372.5       372.5       372.5    
        372.5       372.5       372.5       372.5       372.5       372.5       372.5       372.5       372.5       372.5    
        372.5       372.5       372.5       372.5       372.5       372.5       372.5       372.5       372.5       372.5    
        372.5       372.5       372.5       372.5       372.5      1.0000E+30  1.0000E+30  1.0000E+30  1.0000E+30  1.0000E+30
  26   1.0000E+30  1.0000E+30  1.0000E+30   372.5       372.5       372.5       372.5       372.5       372.5       372.5    
        372.5       372.5       372.5       372.5       372.5       372.5       372.5       372.5       372.5       372.5    
        372.5       372.5       372.5       372.5       372.5       372.5       372.5       372.5       372.5       372.5    
        372.5       372.5       372.5       372.5       372.5       372.5       372.5       372.5       372.5       372.5    
        372.5       372.5       372.5       372.5       372.5      1.0000E+30  1.0000E+30  1.0000E+30  1.0000E+30  1.0000E+30
  27   1.0000E+30  1.0000E+30  1.0000E+30   372.5       372.5       372.5       372.5       372.5       372.5       372.5    
        372.5       372.5       372.5       372.5       372.5       372.5       372.5       372.5       372.5       372.5    
        372.5       372.5       372.5       372.5       372.5       372.5       372.5       372.5       372.5       372.5    
        372.5       372.5       372.5       372.5       372.5       372.5       372.5       372.5       372.5       372.5    
        372.5       372.5       372.5       372.5       372.5       372.5      1.0000E+30  1.0000E+30  1.0000E+30  1.0000E+30
  28   1.0000E+30  1.0000E+30  1.0000E+30   372.5       372.5       372.5       372.5       372.5       372.5       372.5    
        372.5       372.5       372.5       372.5       372.5       372.5       372.5       372.5       372.5       372.5    
        372.5       372.5       372.5       372.5       372.5       372.5       372.5       372.5       372.5       372.5    
        372.5       372.5       372.5       372.5       372.5       372.5       372.5       372.5       372.5       372.5    
        372.5       372.5       372.5       372.5       372.5       372.5      1.0000E+30  1.0000E+30  1.0000E+30  1.0000E+30
  29   1.0000E+30  1.0000E+30   372.5       372.5       372.5       372.5       372.5       372.5       372.5       372.5    
        372.5       372.5       372.5       372.5       372.5       372.5       372.5       372.5       372.5       372.5    
        372.5       372.5       372.5       372.5       372.5       372.5       372.5       372.5       372.5       372.5    
        372.5       372.5       372.5       372.5       372.5       372.5       372.5       372.5       372.5       372.5    
        372.5       372.5       372.5       372.5       372.5       372.5       372.5      1.0000E+30  1.0000E+30  1.0000E+30
  30   1.0000E+30  1.0000E+30  1.0000E+30  1.0000E+30  1.0000E+30   372.5       372.5       372.5       372.5       372.5    
        372.5       372.5       372.5       372.5       372.5       372.5       372.5       372.5       372.5       372.5    
        372.5       372.5       372.5       372.5       372.5       372.5       372.5       372.5       372.5       372.5    
        372.5       372.5       372.5       372.5       372.5       372.5       372.5       372.5       372.5       372.5    
        372.5       372.5       372.5       372.5       372.5       372.5       372.5      1.0000E+30  1.0000E+30  1.0000E+30
  31   1.0000E+30  1.0000E+30  1.0000E+30  1.0000E+30  1.0000E+30  1.0000E+30  1.0000E+30   372.5       372.5       372.5    
        372.5       372.5       372.5       372.5       372.5       372.5       372.5       372.5       372.5       372.5    
        372.5       372.5       372.5       372.5       372.5       372.5       372.5       372.5       372.5       372.5    
        372.5       372.5       372.5       372.5       372.5       372.5       372.5       372.5       372.5       372.5    
        372.5       372.5       372.5       372.5       372.5       372.5       372.5       372.5      1.0000E+30  1.0000E+30
  32   1.0000E+30  1.0000E+30  1.0000E+30  1.0000E+30  1.0000E+30  1.0000E+30  1.0000E+30   372.5       372.5       372.5    
        372.5       372.5       372.5       372.5       372.5       372.5       372.5       372.5       372.5       372.5    
        372.5       372.5       372.5       372.5       372.5       372.5       372.5       372.5       372.5       372.5    
        372.5       372.5       372.5       372.5       372.5       372.5       372.5       372.5       372.5       372.5    
        372.5       372.5       372.5       372.5       372.5       372.5       372.5       372.5       372.5      1.0000E+30
  33   1.0000E+30  1.0000E+30  1.0000E+30  1.0000E+30  1.0000E+30  1.0000E+30  1.0000E+30  1.0000E+30  1.0000E+30  1.0000E+30
        372.5       372.5       372.5       372.5       372.5       372.5       372.5       372.5       372.5       372.5    
        372.5       372.5       372.5       372.5       372.5       372.5       372.5       372.5       372.5       372.5    
        372.5       372.5       372.5       372.5       372.5       372.5       372.5       372.5       372.5       372.5    
        372.5       372.5       372.5       372.5       372.5       372.5       372.5       372.5       372.5      1.0000E+30
  34   1.0000E+30  1.0000E+30  1.0000E+30  1.0000E+30  1.0000E+30  1.0000E+30  1.0000E+30  1.0000E+30  1.0000E+30  1.0000E+30
       1.0000E+30  1.0000E+30   372.5       372.5       372.5       372.5       372.5       372.5       372.5       372.5    
        372.5       372.5       372.5       372.5       372.5       372.5       372.5       372.5       372.5       372.5    
        372.5       372.5       372.5       372.5       372.5       372.5       372.5       372.5       372.5       372.5    
        372.5       372.5       372.5       372.5       372.5       372.5       372.5       372.5       372.5      1.0000E+30
  35   1.0000E+30  1.0000E+30  1.0000E+30  1.0000E+30  1.0000E+30  1.0000E+30  1.0000E+30  1.0000E+30  1.0000E+30  1.0000E+30
       1.0000E+30  1.0000E+30   372.5       372.5       372.5       372.5       372.5       372.5       372.5       372.5    
        372.5       372.5       372.5       372.5       372.5       372.5       372.5       372.5       372.5       372.5    
        372.5       372.5       372.5       372.5       372.5       372.5       372.5       372.5       372.5       372.5    
        372.5       372.5       372.5       372.5       372.5       372.5       372.5       372.5       372.5      1.0000E+30
  36   1.0000E+30  1.0000E+30  1.0000E+30  1.0000E+30  1.0000E+30  1.0000E+30  1.0000E+30  1.0000E+30  1.0000E+30  1.0000E+30
       1.0000E+30  1.0000E+30  1.0000E+30   372.5       372.5       372.5       372.5       372.5       372.5       372.5    
        372.5       372.5       372.5       372.5       372.5       372.5       372.5       372.5       372.5       372.5    
        372.5       372.5       372.5       372.5       372.5       372.5       372.5       372.5       372.5       372.5    
        372.5       372.5       372.5       372.5       372.5       372.5       372.5       372.5       372.5      1.0000E+30
  37   1.0000E+30  1.0000E+30  1.0000E+30  1.0000E+30  1.0000E+30  1.0000E+30  1.0000E+30  1.0000E+30  1.0000E+30  1.0000E+30
       1.0000E+30  1.0000E+30  1.0000E+30   372.5       372.5       372.5       372.5       372.5       372.5       372.5    
        372.5       372.5       372.5       372.5       372.5       372.5       372.5       372.5       372.5       372.5    
        372.5       372.5       372.5       372.5       372.5       372.5       372.5       372.5       372.5       372.5    
        372.5       372.5       372.5       372.5       372.5       372.5       372.5       372.5       372.5      1.0000E+30
  38   1.0000E+30  1.0000E+30  1.0000E+30  1.0000E+30  1.0000E+30  1.0000E+30  1.0000E+30  1.0000E+30  1.0000E+30  1.0000E+30
       1.0000E+30  1.0000E+30  1.0000E+30   372.5       372.5       372.5       372.5       372.5       372.5       372.5    
        372.5       372.5       372.5       372.5       372.5       372.5       372.5       372.5       372.5       372.5    
        372.5       372.5       372.5       372.5       372.5       372.5       372.5       372.5       372.5       372.5    
        372.5       372.5       372.5       372.5       372.5       372.5       372.5       372.5       372.5      1.0000E+30
  39   1.0000E+30  1.0000E+30  1.0000E+30  1.0000E+30  1.0000E+30  1.0000E+30  1.0000E+30  1.0000E+30  1.0000E+30  1.0000E+30
       1.0000E+30  1.0000E+30  1.0000E+30   372.5       372.5       372.5       372.5       372.5       372.5       372.5    
        372.5       372.5       372.5       372.5       372.5       372.5       372.5       372.5       372.5       372.5    
        372.5       372.5       372.5       372.5       372.5       372.5       372.5       372.5       372.5       372.5    
        372.5       372.5       372.5       372.5       372.5       372.5       372.5       372.5       372.5      1.0000E+30
  40   1.0000E+30  1.0000E+30  1.0000E+30  1.0000E+30  1.0000E+30  1.0000E+30  1.0000E+30  1.0000E+30  1.0000E+30  1.0000E+30
       1.0000E+30  1.0000E+30  1.0000E+30  1.0000E+30  1.0000E+30   372.5       372.5       372.5       372.5       372.5    
        372.5       372.5       372.5       372.5       372.5       372.5       372.5       372.5       372.5       372.5    
        372.5       372.5       372.5       372.5       372.5       372.5       372.5       372.5       372.5      1.0000E+30
       1.0000E+30   372.5       372.5       372.5       372.5       372.5       372.5       372.5       372.5      1.0000E+30
  41   1.0000E+30  1.0000E+30  1.0000E+30  1.0000E+30  1.0000E+30  1.0000E+30  1.0000E+30  1.0000E+30  1.0000E+30  1.0000E+30
       1.0000E+30  1.0000E+30  1.0000E+30  1.0000E+30  1.0000E+30   372.5       372.5       372.5       372.5       372.5    
        372.5       372.5       372.5       372.5       372.5       372.5       372.5       372.5       372.5       372.5    
        372.5       372.5       372.5       372.5       372.5      1.0000E+30  1.0000E+30  1.0000E+30  1.0000E+30  1.0000E+30
       1.0000E+30  1.0000E+30  1.0000E+30   372.5       372.5       372.5       372.5       372.5       372.5      1.0000E+30
  42   1.0000E+30  1.0000E+30  1.0000E+30  1.0000E+30  1.0000E+30  1.0000E+30  1.0000E+30  1.0000E+30  1.0000E+30  1.0000E+30
       1.0000E+30  1.0000E+30  1.0000E+30  1.0000E+30  1.0000E+30  1.0000E+30   372.5       372.5       372.5       372.5    
        372.5       372.5       372.5       372.5       372.5       372.5       372.5       372.5       372.5       372.5    
        372.5       372.5       372.5       372.5      1.0000E+30  1.0000E+30  1.0000E+30  1.0000E+30  1.0000E+30  1.0000E+30
       1.0000E+30  1.0000E+30  1.0000E+30  1.0000E+30  1.0000E+30  1.0000E+30  1.0000E+30  1.0000E+30  1.0000E+30  1.0000E+30
  43   1.0000E+30  1.0000E+30  1.0000E+30  1.0000E+30  1.0000E+30  1.0000E+30  1.0000E+30  1.0000E+30  1.0000E+30  1.0000E+30
       1.0000E+30  1.0000E+30  1.0000E+30  1.0000E+30  1.0000E+30   372.5       372.5       372.5       372.5       372.5    
        372.5       372.5       372.5       372.5       372.5       372.5       372.5       372.5       372.5       372.5    
        372.5       372.5       372.5       372.5      1.0000E+30  1.0000E+30  1.0000E+30  1.0000E+30  1.0000E+30  1.0000E+30
       1.0000E+30  1.0000E+30  1.0000E+30  1.0000E+30  1.0000E+30  1.0000E+30  1.0000E+30  1.0000E+30  1.0000E+30  1.0000E+30
  44   1.0000E+30  1.0000E+30  1.0000E+30  1.0000E+30  1.0000E+30  1.0000E+30  1.0000E+30  1.0000E+30  1.0000E+30  1.0000E+30
       1.0000E+30  1.0000E+30  1.0000E+30  1.0000E+30  1.0000E+30   372.5       372.5       372.5       372.5       372.5    
        372.5       372.5       372.5       372.5       372.5       372.5       372.5       372.5       372.5       372.5    
        372.5       372.5       372.5      1.0000E+30  1.0000E+30  1.0000E+30  1.0000E+30  1.0000E+30  1.0000E+30  1.0000E+30
       1.0000E+30  1.0000E+30  1.0000E+30  1.0000E+30  1.0000E+30  1.0000E+30  1.0000E+30  1.0000E+30  1.0000E+30  1.0000E+30
  45   1.0000E+30  1.0000E+30  1.0000E+30  1.0000E+30  1.0000E+30  1.0000E+30  1.0000E+30  1.0000E+30  1.0000E+30  1.0000E+30
       1.0000E+30  1.0000E+30  1.0000E+30  1.0000E+30  1.0000E+30  1.0000E+30   372.5       372.5       372.5       372.5    
        372.5       372.5       372.5       372.5       372.5       372.5       372.5       372.5       372.5       372.5    
        372.5       372.5       372.5      1.0000E+30  1.0000E+30  1.0000E+30  1.0000E+30  1.0000E+30  1.0000E+30  1.0000E+30
       1.0000E+30  1.0000E+30  1.0000E+30  1.0000E+30  1.0000E+30  1.0000E+30  1.0000E+30  1.0000E+30  1.0000E+30  1.0000E+30
  46   1.0000E+30  1.0000E+30  1.0000E+30  1.0000E+30  1.0000E+30  1.0000E+30  1.0000E+30  1.0000E+30  1.0000E+30  1.0000E+30
       1.0000E+30  1.0000E+30  1.0000E+30  1.0000E+30  1.0000E+30  1.0000E+30   372.5       372.5       372.5      1.0000E+30
       1.0000E+30   372.5       372.5       372.5       372.5       372.5       372.5       372.5       372.5       372.5    
        372.5       372.5       372.5      1.0000E+30  1.0000E+30  1.0000E+30  1.0000E+30  1.0000E+30  1.0000E+30  1.0000E+30
       1.0000E+30  1.0000E+30  1.0000E+30  1.0000E+30  1.0000E+30  1.0000E+30  1.0000E+30  1.0000E+30  1.0000E+30  1.0000E+30
  47   1.0000E+30  1.0000E+30  1.0000E+30  1.0000E+30  1.0000E+30  1.0000E+30  1.0000E+30  1.0000E+30  1.0000E+30  1.0000E+30
       1.0000E+30  1.0000E+30  1.0000E+30  1.0000E+30  1.0000E+30  1.0000E+30  1.0000E+30  1.0000E+30  1.0000E+30  1.0000E+30
       1.0000E+30   372.5       372.5       372.5       372.5       372.5       372.5       372.5       372.5       372.5    
        372.5       372.5       372.5      1.0000E+30  1.0000E+30  1.0000E+30  1.0000E+30  1.0000E+30  1.0000E+30  1.0000E+30
       1.0000E+30  1.0000E+30  1.0000E+30  1.0000E+30  1.0000E+30  1.0000E+30  1.0000E+30  1.0000E+30  1.0000E+30  1.0000E+30
  48   1.0000E+30  1.0000E+30  1.0000E+30  1.0000E+30  1.0000E+30  1.0000E+30  1.0000E+30  1.0000E+30  1.0000E+30  1.0000E+30
       1.0000E+30  1.0000E+30  1.0000E+30  1.0000E+30  1.0000E+30  1.0000E+30  1.0000E+30  1.0000E+30  1.0000E+30  1.0000E+30
       1.0000E+30  1.0000E+30   372.5       372.5       372.5       372.5       372.5       372.5       372.5       372.5    
        372.5       372.5       372.5      1.0000E+30  1.0000E+30  1.0000E+30  1.0000E+30  1.0000E+30  1.0000E+30  1.0000E+30
       1.0000E+30  1.0000E+30  1.0000E+30  1.0000E+30  1.0000E+30  1.0000E+30  1.0000E+30  1.0000E+30  1.0000E+30  1.0000E+30
  49   1.0000E+30  1.0000E+30  1.0000E+30  1.0000E+30  1.0000E+30  1.0000E+30  1.0000E+30  1.0000E+30  1.0000E+30  1.0000E+30
       1.0000E+30  1.0000E+30  1.0000E+30  1.0000E+30  1.0000E+30  1.0000E+30  1.0000E+30  1.0000E+30  1.0000E+30  1.0000E+30
       1.0000E+30  1.0000E+30  1.0000E+30   372.5       372.5       372.5       372.5       372.5       372.5       372.5    
        372.5       372.5      1.0000E+30  1.0000E+30  1.0000E+30  1.0000E+30  1.0000E+30  1.0000E+30  1.0000E+30  1.0000E+30
       1.0000E+30  1.0000E+30  1.0000E+30  1.0000E+30  1.0000E+30  1.0000E+30  1.0000E+30  1.0000E+30  1.0000E+30  1.0000E+30
  50   1.0000E+30  1.0000E+30  1.0000E+30  1.0000E+30  1.0000E+30  1.0000E+30  1.0000E+30  1.0000E+30  1.0000E+30  1.0000E+30
       1.0000E+30  1.0000E+30  1.0000E+30  1.0000E+30  1.0000E+30  1.0000E+30  1.0000E+30  1.0000E+30  1.0000E+30  1.0000E+30
       1.0000E+30  1.0000E+30  1.0000E+30  1.0000E+30  1.0000E+30  1.0000E+30  1.0000E+30  1.0000E+30  1.0000E+30  1.0000E+30
       1.0000E+30  1.0000E+30  1.0000E+30  1.0000E+30  1.0000E+30  1.0000E+30  1.0000E+30  1.0000E+30  1.0000E+30  1.0000E+30
       1.0000E+30  1.0000E+30  1.0000E+30  1.0000E+30  1.0000E+30  1.0000E+30  1.0000E+30  1.0000E+30  1.0000E+30  1.0000E+30
1
  HEAD IN LAYER   2 AT END OF TIME STEP   1 IN STRESS PERIOD    1
  ---------------------------------------------------------------------------

            1           2           3           4           5           6           7           8           9          10
           11          12          13          14          15          16          17          18          19          20
           21          22          23          24          25          26          27          28          29          30
           31          32          33          34          35          36          37          38          39          40
           41          42          43          44          45          46          47          48          49          50
 ........................................................................................................................................................................................................................................................................................................................................................................................................................................................................................................................................................................................................................
   1   1.0000E+30  1.0000E+30  1.0000E+30  1.0000E+30  1.0000E+30  1.0000E+30  1.0000E+30  1.0000E+30  1.0000E+30  1.0000E+30
       1.0000E+30  1.0000E+30  1.0000E+30  1.0000E+30  1.0000E+30  1.0000E+30  1.0000E+30  1.0000E+30  1.0000E+30  1.0000E+30
       1.0000E+30  1.0000E+30  1.0000E+30  1.0000E+30  1.0000E+30  1.0000E+30  1.0000E+30  1.0000E+30  1.0000E+30  1.0000E+30
       1.0000E+30  1.0000E+30  1.0000E+30  1.0000E+30  1.0000E+30  1.0000E+30  1.0000E+30  1.0000E+30  1.0000E+30  1.0000E+30
       1.0000E+30  1.0000E+30  1.0000E+30  1.0000E+30  1.0000E+30  1.0000E+30  1.0000E+30  1.0000E+30  1.0000E+30  1.0000E+30
   2   1.0000E+30  1.0000E+30  1.0000E+30  1.0000E+30  1.0000E+30  1.0000E+30  1.0000E+30  1.0000E+30  1.0000E+30  1.0000E+30
       1.0000E+30  1.0000E+30  1.0000E+30  1.0000E+30  1.0000E+30  1.0000E+30  1.0000E+30  1.0000E+30  1.0000E+30  1.0000E+30
       1.0000E+30  1.0000E+30  1.0000E+30  1.0000E+30  1.0000E+30  1.0000E+30  1.0000E+30  1.0000E+30  1.0000E+30  1.0000E+30
        372.5       372.5       372.5      1.0000E+30  1.0000E+30  1.0000E+30  1.0000E+30  1.0000E+30  1.0000E+30  1.0000E+30
       1.0000E+30  1.0000E+30  1.0000E+30  1.0000E+30  1.0000E+30  1.0000E+30  1.0000E+30  1.0000E+30  1.0000E+30  1.0000E+30
   3   1.0000E+30  1.0000E+30  1.0000E+30  1.0000E+30  1.0000E+30  1.0000E+30  1.0000E+30  1.0000E+30  1.0000E+30  1.0000E+30
       1.0000E+30  1.0000E+30  1.0000E+30  1.0000E+30  1.0000E+30  1.0000E+30  1.0000E+30  1.0000E+30  1.0000E+30  1.0000E+30
       1.0000E+30  1.0000E+30  1.0000E+30  1.0000E+30  1.0000E+30  1.0000E+30  1.0000E+30  1.0000E+30  1.0000E+30   372.5    
        372.5       372.5       372.5      1.0000E+30  1.0000E+30  1.0000E+30  1.0000E+30  1.0000E+30  1.0000E+30  1.0000E+30
       1.0000E+30  1.0000E+30  1.0000E+30  1.0000E+30  1.0000E+30  1.0000E+30  1.0000E+30  1.0000E+30  1.0000E+30  1.0000E+30
   4   1.0000E+30  1.0000E+30  1.0000E+30  1.0000E+30  1.0000E+30  1.0000E+30  1.0000E+30  1.0000E+30  1.0000E+30  1.0000E+30
       1.0000E+30  1.0000E+30  1.0000E+30  1.0000E+30  1.0000E+30  1.0000E+30  1.0000E+30  1.0000E+30  1.0000E+30  1.0000E+30
       1.0000E+30  1.0000E+30  1.0000E+30  1.0000E+30  1.0000E+30  1.0000E+30  1.0000E+30  1.0000E+30   372.5       372.5    
        372.5       372.5       372.5       372.5       372.5      1.0000E+30  1.0000E+30  1.0000E+30  1.0000E+30  1.0000E+30
       1.0000E+30  1.0000E+30  1.0000E+30  1.0000E+30  1.0000E+30  1.0000E+30  1.0000E+30  1.0000E+30  1.0000E+30  1.0000E+30
   5   1.0000E+30  1.0000E+30  1.0000E+30  1.0000E+30  1.0000E+30  1.0000E+30  1.0000E+30  1.0000E+30  1.0000E+30  1.0000E+30
       1.0000E+30  1.0000E+30  1.0000E+30  1.0000E+30  1.0000E+30  1.0000E+30  1.0000E+30  1.0000E+30  1.0000E+30  1.0000E+30
       1.0000E+30  1.0000E+30  1.0000E+30  1.0000E+30  1.0000E+30  1.0000E+30  1.0000E+30   372.5       372.5       372.5    
        372.5       372.5       372.5       372.5       372.5       372.5       372.5       372.5       372.5      1.0000E+30
       1.0000E+30  1.0000E+30  1.0000E+30  1.0000E+30  1.0000E+30  1.0000E+30  1.0000E+30  1.0000E+30  1.0000E+30  1.0000E+30
   6   1.0000E+30  1.0000E+30  1.0000E+30  1.0000E+30  1.0000E+30  1.0000E+30  1.0000E+30  1.0000E+30  1.0000E+30  1.0000E+30
       1.0000E+30  1.0000E+30  1.0000E+30  1.0000E+30  1.0000E+30  1.0000E+30  1.0000E+30  1.0000E+30  1.0000E+30  1.0000E+30
       1.0000E+30  1.0000E+30  1.0000E+30  1.0000E+30  1.0000E+30  1.0000E+30  1.0000E+30   372.5       372.5       372.5    
        372.5       372.5       372.5       372.5       372.5       372.5       372.5       372.5       372.5       372.5    
       1.0000E+30  1.0000E+30  1.0000E+30  1.0000E+30  1.0000E+30  1.0000E+30  1.0000E+30  1.0000E+30  1.0000E+30  1.0000E+30
   7   1.0000E+30  1.0000E+30  1.0000E+30  1.0000E+30  1.0000E+30  1.0000E+30  1.0000E+30  1.0000E+30  1.0000E+30  1.0000E+30
       1.0000E+30  1.0000E+30  1.0000E+30  1.0000E+30  1.0000E+30  1.0000E+30  1.0000E+30  1.0000E+30  1.0000E+30  1.0000E+30
       1.0000E+30  1.0000E+30  1.0000E+30  1.0000E+30  1.0000E+30  1.0000E+30   372.5       372.5       372.5       372.5    
        372.5       372.5       372.5       372.5       372.5       372.5       372.5       372.5       372.5       372.5    
       1.0000E+30  1.0000E+30  1.0000E+30  1.0000E+30  1.0000E+30  1.0000E+30  1.0000E+30  1.0000E+30  1.0000E+30  1.0000E+30
   8   1.0000E+30  1.0000E+30  1.0000E+30  1.0000E+30  1.0000E+30  1.0000E+30  1.0000E+30  1.0000E+30  1.0000E+30  1.0000E+30
       1.0000E+30  1.0000E+30  1.0000E+30  1.0000E+30  1.0000E+30  1.0000E+30  1.0000E+30  1.0000E+30  1.0000E+30  1.0000E+30
       1.0000E+30  1.0000E+30  1.0000E+30  1.0000E+30  1.0000E+30  1.0000E+30  1.0000E+30   372.5       372.5       372.5    
        372.5       372.5       372.5       372.5       372.5       372.5       372.5       372.5       372.5       372.5    
       1.0000E+30  1.0000E+30  1.0000E+30  1.0000E+30  1.0000E+30  1.0000E+30  1.0000E+30  1.0000E+30  1.0000E+30  1.0000E+30
   9   1.0000E+30  1.0000E+30  1.0000E+30  1.0000E+30  1.0000E+30  1.0000E+30  1.0000E+30  1.0000E+30  1.0000E+30  1.0000E+30
       1.0000E+30  1.0000E+30  1.0000E+30  1.0000E+30  1.0000E+30  1.0000E+30  1.0000E+30  1.0000E+30  1.0000E+30  1.0000E+30
       1.0000E+30  1.0000E+30  1.0000E+30  1.0000E+30  1.0000E+30  1.0000E+30  1.0000E+30   372.5       372.5       372.5    
        372.5       372.5       372.5       372.5       372.5       372.5       372.5       372.5       372.5       372.5    
       1.0000E+30  1.0000E+30  1.0000E+30  1.0000E+30  1.0000E+30  1.0000E+30  1.0000E+30  1.0000E+30  1.0000E+30  1.0000E+30
  10   1.0000E+30  1.0000E+30  1.0000E+30  1.0000E+30  1.0000E+30  1.0000E+30  1.0000E+30   372.5       372.5       372.5    
       1.0000E+30  1.0000E+30  1.0000E+30  1.0000E+30  1.0000E+30  1.0000E+30  1.0000E+30  1.0000E+30  1.0000E+30  1.0000E+30
       1.0000E+30  1.0000E+30  1.0000E+30  1.0000E+30  1.0000E+30  1.0000E+30   372.5       372.5       372.5       372.5    
        372.5       372.5       372.5       372.5       372.5       372.5       372.5       372.5       372.5       372.5    
       1.0000E+30  1.0000E+30  1.0000E+30  1.0000E+30  1.0000E+30  1.0000E+30  1.0000E+30  1.0000E+30  1.0000E+30  1.0000E+30
  11   1.0000E+30  1.0000E+30  1.0000E+30  1.0000E+30  1.0000E+30  1.0000E+30  1.0000E+30   372.5       372.5       372.5    
        372.5       372.5       372.5      1.0000E+30  1.0000E+30  1.0000E+30  1.0000E+30  1.0000E+30  1.0000E+30  1.0000E+30
       1.0000E+30  1.0000E+30   372.5       372.5       372.5       372.5       372.5       372.5       372.5       372.5    
        372.5       372.5       372.5       372.5       372.5       372.5       372.5       372.5       372.5       372.5    
        372.5      1.0000E+30  1.0000E+30  1.0000E+30  1.0000E+30  1.0000E+30  1.0000E+30  1.0000E+30  1.0000E+30  1.0000E+30
  12   1.0000E+30  1.0000E+30  1.0000E+30  1.0000E+30  1.0000E+30  1.0000E+30  1.0000E+30   372.5       372.5       372.5    
        372.5       372.5       372.5       372.5      1.0000E+30  1.0000E+30  1.0000E+30   372.5      1.0000E+30  1.0000E+30
       1.0000E+30   372.5       372.5       372.5       372.5       372.5       372.5       372.5       372.5       372.5    
        372.5       372.5       372.5       372.5       372.5       372.5       372.5       372.5       372.5       372.5    
        372.5      1.0000E+30  1.0000E+30  1.0000E+30  1.0000E+30  1.0000E+30  1.0000E+30  1.0000E+30  1.0000E+30  1.0000E+30
  13   1.0000E+30  1.0000E+30  1.0000E+30  1.0000E+30  1.0000E+30  1.0000E+30  1.0000E+30  1.0000E+30   372.5       372.5    
        372.5       372.5       372.5       372.5       372.5       372.5       372.5       372.5       372.5       372.5    
        372.5       372.5       372.5       372.5       372.5       372.5       372.5       372.5       372.5       372.5    
        372.5       372.5       372.5       372.5       372.5       372.5       372.5       372.5       372.5       372.5    
        372.5      1.0000E+30  1.0000E+30  1.0000E+30  1.0000E+30  1.0000E+30  1.0000E+30  1.0000E+30  1.0000E+30  1.0000E+30
  14   1.0000E+30   372.5       372.5      1.0000E+30  1.0000E+30  1.0000E+30   372.5       372.5       372.5       372.5    
        372.5       372.5       372.5       372.5       372.5       372.5       372.5       372.5       372.5       372.5    
        372.5       372.5       372.5       372.5       372.5       372.5       372.5       372.5       372.5       372.5    
        372.5       372.5       372.5       372.5       372.5       372.5       372.5       372.5       372.5       372.5    
        372.5      1.0000E+30  1.0000E+30  1.0000E+30  1.0000E+30  1.0000E+30  1.0000E+30  1.0000E+30  1.0000E+30  1.0000E+30
  15   1.0000E+30   372.5       372.5       372.5       372.5       372.5       372.5       372.5       372.5       372.5    
        372.5       372.5       372.5       372.5       372.5       372.5       372.5       372.5       372.5       372.5    
        372.5       372.5       372.5       372.5       372.5       372.5       372.5       372.5       372.5       372.5    
        372.5       372.5       372.5       372.5       372.5       372.5       372.5       372.5       372.5       372.5    
        372.5       372.5      1.0000E+30  1.0000E+30  1.0000E+30  1.0000E+30  1.0000E+30  1.0000E+30  1.0000E+30  1.0000E+30
  16   1.0000E+30  1.0000E+30   372.5       372.5       372.5       372.5       372.5       372.5       372.5       372.5    
        372.5       372.5       372.5       372.5       372.5       372.5       372.5       372.5       372.5       372.5    
        372.5       372.5       372.5       372.5       372.5       372.5       372.5       372.5       372.5       372.5    
        372.5       372.5       372.5       372.5       372.5       372.5       372.5       372.5       372.5       372.5    
        372.5       372.5      1.0000E+30  1.0000E+30  1.0000E+30  1.0000E+30  1.0000E+30  1.0000E+30  1.0000E+30  1.0000E+30
  17   1.0000E+30   372.5       372.5       372.5       372.5       372.5       372.5       372.5       372.5       372.5    
        372.5       372.5       372.5       372.5       372.5       372.5       372.5       372.5       372.5       372.5    
        372.5       372.5       372.5       372.5       372.5       372.5       372.5       372.5       372.5       372.5    
        372.5       372.5       372.5       372.5       372.5       372.5       372.5       372.5       372.5       372.5    
        372.5       372.5      1.0000E+30  1.0000E+30  1.0000E+30  1.0000E+30  1.0000E+30  1.0000E+30  1.0000E+30  1.0000E+30
  18   1.0000E+30   372.5       372.5       372.5       372.5       372.5       372.5       372.5       372.5       372.5    
        372.5       372.5       372.5       372.5       372.5       372.5       372.5       372.5       372.5       372.5    
        372.5       372.5       372.5       372.5       372.5       372.5       372.5       372.5       372.5       372.5    
        372.5       372.5       372.5       372.5       372.5       372.5       372.5       372.5       372.5       372.5    
        372.5       372.5      1.0000E+30  1.0000E+30  1.0000E+30  1.0000E+30  1.0000E+30  1.0000E+30  1.0000E+30  1.0000E+30
  19   1.0000E+30   372.5       372.5       372.5       372.5       372.5       372.5       372.5       372.5       372.5    
        372.5       372.5       372.5       372.5       372.5       372.5       372.5       372.5       372.5       372.5    
        372.5       372.5       372.5       372.5       372.5       372.5       372.5       372.5       372.5       372.5    
        372.5       372.5       372.5       372.5       372.5       372.5       372.5       372.5       372.5       372.5    
        372.5       372.5       372.5      1.0000E+30  1.0000E+30  1.0000E+30  1.0000E+30  1.0000E+30  1.0000E+30  1.0000E+30
  20   1.0000E+30  1.0000E+30   372.5       372.5       372.5       372.5       372.5       372.5       372.5       372.5    
        372.5       372.5       372.5       372.5       372.5       372.5       372.5       372.5       372.5       372.5    
        372.5       372.5       372.5       372.5       372.5       372.5       372.5       372.5       372.5       372.5    
        372.5       372.5       372.5       372.5       372.5       372.5       372.5       372.5       372.5       372.5    
        372.5       372.5       372.5      1.0000E+30  1.0000E+30  1.0000E+30  1.0000E+30  1.0000E+30  1.0000E+30  1.0000E+30
  21   1.0000E+30  1.0000E+30   372.5       372.5       372.5       372.5       372.5       372.5       372.5       372.5    
        372.5       372.5       372.5       372.5       372.5       372.5       372.5       372.5       372.5       372.5    
        372.5       372.5       372.5       372.5       372.5       372.5       372.5       372.5       372.5       372.5    
        372.5       372.5       372.5       372.5       372.5       372.5       372.5       372.5       372.5       372.5    
        372.5       372.5       372.5      1.0000E+30  1.0000E+30  1.0000E+30  1.0000E+30  1.0000E+30  1.0000E+30  1.0000E+30
  22   1.0000E+30  1.0000E+30  1.0000E+30   372.5       372.5       372.5       372.5       372.5       372.5       372.5    
        372.5       372.5       372.5       372.5       372.5       372.5       372.5       372.5       372.5       372.5    
        372.5       372.5       372.5       372.5       372.5       372.5       372.5       372.5       372.5       372.5    
        372.5       372.5       372.5       372.5       372.5       372.5       372.5       372.5       372.5       372.5    
        372.5       372.5       372.5      1.0000E+30  1.0000E+30  1.0000E+30  1.0000E+30  1.0000E+30  1.0000E+30  1.0000E+30
  23   1.0000E+30  1.0000E+30  1.0000E+30   372.5       372.5       372.5       372.5       372.5       372.5       372.5    
        372.5       372.5       372.5       372.5       372.5       372.5       372.5       372.5       372.5       372.5    
        372.5       372.5       372.5       372.5       372.5       372.5       372.5       372.5       372.5       372.5    
        372.5       372.5       372.5       372.5       372.5       372.5       372.5       372.5       372.5       372.5    
        372.5       372.5       372.5       372.5      1.0000E+30  1.0000E+30  1.0000E+30  1.0000E+30  1.0000E+30  1.0000E+30
  24   1.0000E+30  1.0000E+30  1.0000E+30   372.5       372.5       372.5       372.5       372.5       372.5       372.5    
        372.5       372.5       372.5       372.5       372.5       372.5       372.5       372.5       372.5       372.5    
        372.5       372.5       372.5       372.5       372.5       372.5       372.5       372.5       372.5       372.5    
        372.5       372.5       372.5       372.5       372.5       372.5       372.5       372.5       372.5       372.5    
        372.5       372.5       372.5       372.5      1.0000E+30  1.0000E+30  1.0000E+30  1.0000E+30  1.0000E+30  1.0000E+30
  25   1.0000E+30  1.0000E+30  1.0000E+30   372.5       372.5       372.5       372.5       372.5       372.5       372.5    
        372.5       372.5       372.5       372.5       372.5       372.5       372.5       372.5       372.5       372.5    
        372.5       372.5       372.5       372.5       372.5       372.5       372.5       372.5       372.5       372.5    
        372.5       372.5       372.5       372.5       372.5       372.5       372.5       372.5       372.5       372.5    
        372.5       372.5       372.5       372.5       372.5      1.0000E+30  1.0000E+30  1.0000E+30  1.0000E+30  1.0000E+30
  26   1.0000E+30  1.0000E+30  1.0000E+30   372.5       372.5       372.5       372.5       372.5       372.5       372.5    
        372.5       372.5       372.5       372.5       372.5       372.5       372.5       372.5       372.5       372.5    
        372.5       372.5       372.5       372.5       372.5       372.5       372.5       372.5       372.5       372.5    
        372.5       372.5       372.5       372.5       372.5       372.5       372.5       372.5       372.5       372.5    
        372.5       372.5       372.5       372.5       372.5      1.0000E+30  1.0000E+30  1.0000E+30  1.0000E+30  1.0000E+30
  27   1.0000E+30  1.0000E+30  1.0000E+30   372.5       372.5       372.5       372.5       372.5       372.5       372.5    
        372.5       372.5       372.5       372.5       372.5       372.5       372.5       372.5       372.5       372.5    
        372.5       372.5       372.5       372.5       372.5       372.5       372.5       372.5       372.5       372.5    
        372.5       372.5       372.5       372.5       372.5       372.5       372.5       372.5       372.5       372.5    
        372.5       372.5       372.5       372.5       372.5       372.5      1.0000E+30  1.0000E+30  1.0000E+30  1.0000E+30
  28   1.0000E+30  1.0000E+30  1.0000E+30   372.5       372.5       372.5       372.5       372.5       372.5       372.5    
        372.5       372.5       372.5       372.5       372.5       372.5       372.5       372.5       372.5       372.5    
        372.5       372.5       372.5       372.5       372.5       372.5       372.5       372.5       372.5       372.5    
        372.5       372.5       372.5       372.5       372.5       372.5       372.5       372.5       372.5       372.5    
        372.5       372.5       372.5       372.5       372.5       372.5      1.0000E+30  1.0000E+30  1.0000E+30  1.0000E+30
  29   1.0000E+30  1.0000E+30   372.5       372.5       372.5       372.5       372.5       372.5       372.5       372.5    
        372.5       372.5       372.5       372.5       372.5       372.5       372.5       372.5       372.5       372.5    
        372.5       372.5       372.5       372.5       372.5       372.5       372.5       372.5       372.5       372.5    
        372.5       372.5       372.5       372.5       372.5       372.5       372.5       372.5       372.5       372.5    
        372.5       372.5       372.5       372.5       372.5       372.5       372.5      1.0000E+30  1.0000E+30  1.0000E+30
  30   1.0000E+30  1.0000E+30  1.0000E+30  1.0000E+30  1.0000E+30   372.5       372.5       372.5       372.5       372.5    
        372.5       372.5       372.5       372.5       372.5       372.5       372.5       372.5       372.5       372.5    
        372.5       372.5       372.5       372.5       372.5       372.5       372.5       372.5       372.5       372.5    
        372.5       372.5       372.5       372.5       372.5       372.5       372.5       372.5       372.5       372.5    
        372.5       372.5       372.5       372.5       372.5       372.5       372.5      1.0000E+30  1.0000E+30  1.0000E+30
  31   1.0000E+30  1.0000E+30  1.0000E+30  1.0000E+30  1.0000E+30  1.0000E+30  1.0000E+30   372.5       372.5       372.5    
        372.5       372.5       372.5       372.5       372.5       372.5       372.5       372.5       372.5       372.5    
        372.5       372.5       372.5       372.5       372.5       372.5       372.5       372.5       372.5       372.5    
        372.5       372.5       372.5       372.5       372.5       372.5       372.5       372.5       372.5       372.5    
        372.5       372.5       372.5       372.5       372.5       372.5       372.5       372.5      1.0000E+30  1.0000E+30
  32   1.0000E+30  1.0000E+30  1.0000E+30  1.0000E+30  1.0000E+30  1.0000E+30  1.0000E+30   372.5       372.5       372.5    
        372.5       372.5       372.5       372.5       372.5       372.5       372.5       372.5       372.5       372.5    
        372.5       372.5       372.5       372.5       372.5       372.5       372.5       372.5       372.5       372.5    
        372.5       372.5       372.5       372.5       372.5       372.5       372.5       372.5       372.5       372.5    
        372.5       372.5       372.5       372.5       372.5       372.5       372.5       372.5       372.5      1.0000E+30
  33   1.0000E+30  1.0000E+30  1.0000E+30  1.0000E+30  1.0000E+30  1.0000E+30  1.0000E+30  1.0000E+30  1.0000E+30  1.0000E+30
        372.5       372.5       372.5       372.5       372.5       372.5       372.5       372.5       372.5       372.5    
        372.5       372.5       372.5       372.5       372.5       372.5       372.5       372.5       372.5       372.5    
        372.5       372.5       372.5       372.5       372.5       372.5       372.5       372.5       372.5       372.5    
        372.5       372.5       372.5       372.5       372.5       372.5       372.5       372.5       372.5      1.0000E+30
  34   1.0000E+30  1.0000E+30  1.0000E+30  1.0000E+30  1.0000E+30  1.0000E+30  1.0000E+30  1.0000E+30  1.0000E+30  1.0000E+30
       1.0000E+30  1.0000E+30   372.5       372.5       372.5       372.5       372.5       372.5       372.5       372.5    
        372.5       372.5       372.5       372.5       372.5       372.5       372.5       372.5       372.5       372.5    
        372.5       372.5       372.5       372.5       372.5       372.5       372.5       372.5       372.5       372.5    
        372.5       372.5       372.5       372.5       372.5       372.5       372.5       372.5       372.5      1.0000E+30
  35   1.0000E+30  1.0000E+30  1.0000E+30  1.0000E+30  1.0000E+30  1.0000E+30  1.0000E+30  1.0000E+30  1.0000E+30  1.0000E+30
       1.0000E+30  1.0000E+30   372.5       372.5       372.5       372.5       372.5       372.5       372.5       372.5    
        372.5       372.5       372.5       372.5       372.5       372.5       372.5       372.5       372.5       372.5    
        372.5       372.5       372.5       372.5       372.5       372.5       372.5       372.5       372.5       372.5    
        372.5       372.5       372.5       372.5       372.5       372.5       372.5       372.5       372.5      1.0000E+30
  36   1.0000E+30  1.0000E+30  1.0000E+30  1.0000E+30  1.0000E+30  1.0000E+30  1.0000E+30  1.0000E+30  1.0000E+30  1.0000E+30
       1.0000E+30  1.0000E+30  1.0000E+30   372.5       372.5       372.5       372.5       372.5       372.5       372.5    
        372.5       372.5       372.5       372.5       372.5       372.5       372.5       372.5       372.5       372.5    
        372.5       372.5       372.5       372.5       372.5       372.5       372.5       372.5       372.5       372.5    
        372.5       372.5       372.5       372.5       372.5       372.5       372.5       372.5       372.5      1.0000E+30
  37   1.0000E+30  1.0000E+30  1.0000E+30  1.0000E+30  1.0000E+30  1.0000E+30  1.0000E+30  1.0000E+30  1.0000E+30  1.0000E+30
       1.0000E+30  1.0000E+30  1.0000E+30   372.5       372.5       372.5       372.5       372.5       372.5       372.5    
        372.5       372.5       372.5       372.5       372.5       372.5       372.5       372.5       372.5       372.5    
        372.5       372.5       372.5       372.5       372.5       372.5       372.5       372.5       372.5       372.5    
        372.5       372.5       372.5       372.5       372.5       372.5       372.5       372.5       372.5      1.0000E+30
  38   1.0000E+30  1.0000E+30  1.0000E+30  1.0000E+30  1.0000E+30  1.0000E+30  1.0000E+30  1.0000E+30  1.0000E+30  1.0000E+30
       1.0000E+30  1.0000E+30  1.0000E+30   372.5       372.5       372.5       372.5       372.5       372.5       372.5    
        372.5       372.5       372.5       372.5       372.5       372.5       372.5       372.5       372.5       372.5    
        372.5       372.5       372.5       372.5       372.5       372.5       372.5       372.5       372.5       372.5    
        372.5       372.5       372.5       372.5       372.5       372.5       372.5       372.5       372.5      1.0000E+30
  39   1.0000E+30  1.0000E+30  1.0000E+30  1.0000E+30  1.0000E+30  1.0000E+30  1.0000E+30  1.0000E+30  1.0000E+30  1.0000E+30
       1.0000E+30  1.0000E+30  1.0000E+30   372.5       372.5       372.5       372.5       372.5       372.5       372.5    
        372.5       372.5       372.5       372.5       372.5       372.5       372.5       372.5       372.5       372.5    
        372.5       372.5       372.5       372.5       372.5       372.5       372.5       372.5       372.5       372.5    
        372.5       372.5       372.5       372.5       372.5       372.5       372.5       372.5       372.5      1.0000E+30
  40   1.0000E+30  1.0000E+30  1.0000E+30  1.0000E+30  1.0000E+30  1.0000E+30  1.0000E+30  1.0000E+30  1.0000E+30  1.0000E+30
       1.0000E+30  1.0000E+30  1.0000E+30  1.0000E+30  1.0000E+30   372.5       372.5       372.5       372.5       372.5    
        372.5       372.5       372.5       372.5       372.5       372.5       372.5       372.5       372.5       372.5    
        372.5       372.5       372.5       372.5       372.5       372.5       372.5       372.5       372.5      1.0000E+30
       1.0000E+30   372.5       372.5       372.5       372.5       372.5       372.5       372.5       372.5      1.0000E+30
  41   1.0000E+30  1.0000E+30  1.0000E+30  1.0000E+30  1.0000E+30  1.0000E+30  1.0000E+30  1.0000E+30  1.0000E+30  1.0000E+30
       1.0000E+30  1.0000E+30  1.0000E+30  1.0000E+30  1.0000E+30   372.5       372.5       372.5       372.5       372.5    
        372.5       372.5       372.5       372.5       372.5       372.5       372.5       372.5       372.5       372.5    
        372.5       372.5       372.5       372.5       372.5      1.0000E+30  1.0000E+30  1.0000E+30  1.0000E+30  1.0000E+30
       1.0000E+30  1.0000E+30  1.0000E+30   372.5       372.5       372.5       372.5       372.5       372.5      1.0000E+30
  42   1.0000E+30  1.0000E+30  1.0000E+30  1.0000E+30  1.0000E+30  1.0000E+30  1.0000E+30  1.0000E+30  1.0000E+30  1.0000E+30
       1.0000E+30  1.0000E+30  1.0000E+30  1.0000E+30  1.0000E+30  1.0000E+30   372.5       372.5       372.5       372.5    
        372.5       372.5       372.5       372.5       372.5       372.5       372.5       372.5       372.5       372.5    
        372.5       372.5       372.5       372.5      1.0000E+30  1.0000E+30  1.0000E+30  1.0000E+30  1.0000E+30  1.0000E+30
       1.0000E+30  1.0000E+30  1.0000E+30  1.0000E+30  1.0000E+30  1.0000E+30  1.0000E+30  1.0000E+30  1.0000E+30  1.0000E+30
  43   1.0000E+30  1.0000E+30  1.0000E+30  1.0000E+30  1.0000E+30  1.0000E+30  1.0000E+30  1.0000E+30  1.0000E+30  1.0000E+30
       1.0000E+30  1.0000E+30  1.0000E+30  1.0000E+30  1.0000E+30   372.5       372.5       372.5       372.5       372.5    
        372.5       372.5       372.5       372.5       372.5       372.5       372.5       372.5       372.5       372.5    
        372.5       372.5       372.5       372.5      1.0000E+30  1.0000E+30  1.0000E+30  1.0000E+30  1.0000E+30  1.0000E+30
       1.0000E+30  1.0000E+30  1.0000E+30  1.0000E+30  1.0000E+30  1.0000E+30  1.0000E+30  1.0000E+30  1.0000E+30  1.0000E+30
  44   1.0000E+30  1.0000E+30  1.0000E+30  1.0000E+30  1.0000E+30  1.0000E+30  1.0000E+30  1.0000E+30  1.0000E+30  1.0000E+30
       1.0000E+30  1.0000E+30  1.0000E+30  1.0000E+30  1.0000E+30   372.5       372.5       372.5       372.5       372.5    
        372.5       372.5       372.5       372.5       372.5       372.5       372.5       372.5       372.5       372.5    
        372.5       372.5       372.5      1.0000E+30  1.0000E+30  1.0000E+30  1.0000E+30  1.0000E+30  1.0000E+30  1.0000E+30
       1.0000E+30  1.0000E+30  1.0000E+30  1.0000E+30  1.0000E+30  1.0000E+30  1.0000E+30  1.0000E+30  1.0000E+30  1.0000E+30
  45   1.0000E+30  1.0000E+30  1.0000E+30  1.0000E+30  1.0000E+30  1.0000E+30  1.0000E+30  1.0000E+30  1.0000E+30  1.0000E+30
       1.0000E+30  1.0000E+30  1.0000E+30  1.0000E+30  1.0000E+30  1.0000E+30   372.5       372.5       372.5       372.5    
        372.5       372.5       372.5       372.5       372.5       372.5       372.5       372.5       372.5       372.5    
        372.5       372.5       372.5      1.0000E+30  1.0000E+30  1.0000E+30  1.0000E+30  1.0000E+30  1.0000E+30  1.0000E+30
       1.0000E+30  1.0000E+30  1.0000E+30  1.0000E+30  1.0000E+30  1.0000E+30  1.0000E+30  1.0000E+30  1.0000E+30  1.0000E+30
  46   1.0000E+30  1.0000E+30  1.0000E+30  1.0000E+30  1.0000E+30  1.0000E+30  1.0000E+30  1.0000E+30  1.0000E+30  1.0000E+30
       1.0000E+30  1.0000E+30  1.0000E+30  1.0000E+30  1.0000E+30  1.0000E+30   372.5       372.5       372.5      1.0000E+30
       1.0000E+30   372.5       372.5       372.5       372.5       372.5       372.5       372.5       372.5       372.5    
        372.5       372.5       372.5      1.0000E+30  1.0000E+30  1.0000E+30  1.0000E+30  1.0000E+30  1.0000E+30  1.0000E+30
       1.0000E+30  1.0000E+30  1.0000E+30  1.0000E+30  1.0000E+30  1.0000E+30  1.0000E+30  1.0000E+30  1.0000E+30  1.0000E+30
  47   1.0000E+30  1.0000E+30  1.0000E+30  1.0000E+30  1.0000E+30  1.0000E+30  1.0000E+30  1.0000E+30  1.0000E+30  1.0000E+30
       1.0000E+30  1.0000E+30  1.0000E+30  1.0000E+30  1.0000E+30  1.0000E+30  1.0000E+30  1.0000E+30  1.0000E+30  1.0000E+30
       1.0000E+30   372.5       372.5       372.5       372.5       372.5       372.5       372.5       372.5       372.5    
        372.5       372.5       372.5      1.0000E+30  1.0000E+30  1.0000E+30  1.0000E+30  1.0000E+30  1.0000E+30  1.0000E+30
       1.0000E+30  1.0000E+30  1.0000E+30  1.0000E+30  1.0000E+30  1.0000E+30  1.0000E+30  1.0000E+30  1.0000E+30  1.0000E+30
  48   1.0000E+30  1.0000E+30  1.0000E+30  1.0000E+30  1.0000E+30  1.0000E+30  1.0000E+30  1.0000E+30  1.0000E+30  1.0000E+30
       1.0000E+30  1.0000E+30  1.0000E+30  1.0000E+30  1.0000E+30  1.0000E+30  1.0000E+30  1.0000E+30  1.0000E+30  1.0000E+30
       1.0000E+30  1.0000E+30   372.5       372.5       372.5       372.5       372.5       372.5       372.5       372.5    
        372.5       372.5       372.5      1.0000E+30  1.0000E+30  1.0000E+30  1.0000E+30  1.0000E+30  1.0000E+30  1.0000E+30
       1.0000E+30  1.0000E+30  1.0000E+30  1.0000E+30  1.0000E+30  1.0000E+30  1.0000E+30  1.0000E+30  1.0000E+30  1.0000E+30
  49   1.0000E+30  1.0000E+30  1.0000E+30  1.0000E+30  1.0000E+30  1.0000E+30  1.0000E+30  1.0000E+30  1.0000E+30  1.0000E+30
       1.0000E+30  1.0000E+30  1.0000E+30  1.0000E+30  1.0000E+30  1.0000E+30  1.0000E+30  1.0000E+30  1.0000E+30  1.0000E+30
       1.0000E+30  1.0000E+30  1.0000E+30   372.5       372.5       372.5       372.5       372.5       372.5       372.5    
        372.5       372.5      1.0000E+30  1.0000E+30  1.0000E+30  1.0000E+30  1.0000E+30  1.0000E+30  1.0000E+30  1.0000E+30
       1.0000E+30  1.0000E+30  1.0000E+30  1.0000E+30  1.0000E+30  1.0000E+30  1.0000E+30  1.0000E+30  1.0000E+30  1.0000E+30
  50   1.0000E+30  1.0000E+30  1.0000E+30  1.0000E+30  1.0000E+30  1.0000E+30  1.0000E+30  1.0000E+30  1.0000E+30  1.0000E+30
       1.0000E+30  1.0000E+30  1.0000E+30  1.0000E+30  1.0000E+30  1.0000E+30  1.0000E+30  1.0000E+30  1.0000E+30  1.0000E+30
       1.0000E+30  1.0000E+30  1.0000E+30  1.0000E+30  1.0000E+30  1.0000E+30  1.0000E+30  1.0000E+30  1.0000E+30  1.0000E+30
       1.0000E+30  1.0000E+30  1.0000E+30  1.0000E+30  1.0000E+30  1.0000E+30  1.0000E+30  1.0000E+30  1.0000E+30  1.0000E+30
       1.0000E+30  1.0000E+30  1.0000E+30  1.0000E+30  1.0000E+30  1.0000E+30  1.0000E+30  1.0000E+30  1.0000E+30  1.0000E+30
1
  HEAD IN LAYER   3 AT END OF TIME STEP   1 IN STRESS PERIOD    1
  ---------------------------------------------------------------------------

            1           2           3           4           5           6           7           8           9          10
           11          12          13          14          15          16          17          18          19          20
           21          22          23          24          25          26          27          28          29          30
           31          32          33          34          35          36          37          38          39          40
           41          42          43          44          45          46          47          48          49          50
 ........................................................................................................................................................................................................................................................................................................................................................................................................................................................................................................................................................................................................................
   1   1.0000E+30  1.0000E+30  1.0000E+30  1.0000E+30  1.0000E+30  1.0000E+30  1.0000E+30  1.0000E+30  1.0000E+30  1.0000E+30
       1.0000E+30  1.0000E+30  1.0000E+30  1.0000E+30  1.0000E+30  1.0000E+30  1.0000E+30  1.0000E+30  1.0000E+30  1.0000E+30
       1.0000E+30  1.0000E+30  1.0000E+30  1.0000E+30  1.0000E+30  1.0000E+30  1.0000E+30  1.0000E+30  1.0000E+30  1.0000E+30
       1.0000E+30  1.0000E+30  1.0000E+30  1.0000E+30  1.0000E+30  1.0000E+30  1.0000E+30  1.0000E+30  1.0000E+30  1.0000E+30
       1.0000E+30  1.0000E+30  1.0000E+30  1.0000E+30  1.0000E+30  1.0000E+30  1.0000E+30  1.0000E+30  1.0000E+30  1.0000E+30
   2   1.0000E+30  1.0000E+30  1.0000E+30  1.0000E+30  1.0000E+30  1.0000E+30  1.0000E+30  1.0000E+30  1.0000E+30  1.0000E+30
       1.0000E+30  1.0000E+30  1.0000E+30  1.0000E+30  1.0000E+30  1.0000E+30  1.0000E+30  1.0000E+30  1.0000E+30  1.0000E+30
       1.0000E+30  1.0000E+30  1.0000E+30  1.0000E+30  1.0000E+30  1.0000E+30  1.0000E+30  1.0000E+30  1.0000E+30  1.0000E+30
        372.5       372.5       372.5      1.0000E+30  1.0000E+30  1.0000E+30  1.0000E+30  1.0000E+30  1.0000E+30  1.0000E+30
       1.0000E+30  1.0000E+30  1.0000E+30  1.0000E+30  1.0000E+30  1.0000E+30  1.0000E+30  1.0000E+30  1.0000E+30  1.0000E+30
   3   1.0000E+30  1.0000E+30  1.0000E+30  1.0000E+30  1.0000E+30  1.0000E+30  1.0000E+30  1.0000E+30  1.0000E+30  1.0000E+30
       1.0000E+30  1.0000E+30  1.0000E+30  1.0000E+30  1.0000E+30  1.0000E+30  1.0000E+30  1.0000E+30  1.0000E+30  1.0000E+30
       1.0000E+30  1.0000E+30  1.0000E+30  1.0000E+30  1.0000E+30  1.0000E+30  1.0000E+30  1.0000E+30  1.0000E+30   372.5    
        372.5       372.5       372.5      1.0000E+30  1.0000E+30  1.0000E+30  1.0000E+30  1.0000E+30  1.0000E+30  1.0000E+30
       1.0000E+30  1.0000E+30  1.0000E+30  1.0000E+30  1.0000E+30  1.0000E+30  1.0000E+30  1.0000E+30  1.0000E+30  1.0000E+30
   4   1.0000E+30  1.0000E+30  1.0000E+30  1.0000E+30  1.0000E+30  1.0000E+30  1.0000E+30  1.0000E+30  1.0000E+30  1.0000E+30
       1.0000E+30  1.0000E+30  1.0000E+30  1.0000E+30  1.0000E+30  1.0000E+30  1.0000E+30  1.0000E+30  1.0000E+30  1.0000E+30
       1.0000E+30  1.0000E+30  1.0000E+30  1.0000E+30  1.0000E+30  1.0000E+30  1.0000E+30  1.0000E+30   372.5       372.5    
        372.5       372.5       372.5       372.5       372.5      1.0000E+30  1.0000E+30  1.0000E+30  1.0000E+30  1.0000E+30
       1.0000E+30  1.0000E+30  1.0000E+30  1.0000E+30  1.0000E+30  1.0000E+30  1.0000E+30  1.0000E+30  1.0000E+30  1.0000E+30
   5   1.0000E+30  1.0000E+30  1.0000E+30  1.0000E+30  1.0000E+30  1.0000E+30  1.0000E+30  1.0000E+30  1.0000E+30  1.0000E+30
       1.0000E+30  1.0000E+30  1.0000E+30  1.0000E+30  1.0000E+30  1.0000E+30  1.0000E+30  1.0000E+30  1.0000E+30  1.0000E+30
       1.0000E+30  1.0000E+30  1.0000E+30  1.0000E+30  1.0000E+30  1.0000E+30  1.0000E+30   372.5       372.5       372.5    
        372.5       372.5       372.5       372.5       372.5       372.5       372.5       372.5       372.5      1.0000E+30
       1.0000E+30  1.0000E+30  1.0000E+30  1.0000E+30  1.0000E+30  1.0000E+30  1.0000E+30  1.0000E+30  1.0000E+30  1.0000E+30
   6   1.0000E+30  1.0000E+30  1.0000E+30  1.0000E+30  1.0000E+30  1.0000E+30  1.0000E+30  1.0000E+30  1.0000E+30  1.0000E+30
       1.0000E+30  1.0000E+30  1.0000E+30  1.0000E+30  1.0000E+30  1.0000E+30  1.0000E+30  1.0000E+30  1.0000E+30  1.0000E+30
       1.0000E+30  1.0000E+30  1.0000E+30  1.0000E+30  1.0000E+30  1.0000E+30  1.0000E+30   372.5       372.5       372.5    
        372.5       372.5       372.5       372.5       372.5       372.5       372.5       372.5       372.5       372.5    
       1.0000E+30  1.0000E+30  1.0000E+30  1.0000E+30  1.0000E+30  1.0000E+30  1.0000E+30  1.0000E+30  1.0000E+30  1.0000E+30
   7   1.0000E+30  1.0000E+30  1.0000E+30  1.0000E+30  1.0000E+30  1.0000E+30  1.0000E+30  1.0000E+30  1.0000E+30  1.0000E+30
       1.0000E+30  1.0000E+30  1.0000E+30  1.0000E+30  1.0000E+30  1.0000E+30  1.0000E+30  1.0000E+30  1.0000E+30  1.0000E+30
       1.0000E+30  1.0000E+30  1.0000E+30  1.0000E+30  1.0000E+30  1.0000E+30   372.5       372.5       372.5       372.5    
        372.5       372.5       372.5       372.5       372.5       372.5       372.5       372.5       372.5       372.5    
       1.0000E+30  1.0000E+30  1.0000E+30  1.0000E+30  1.0000E+30  1.0000E+30  1.0000E+30  1.0000E+30  1.0000E+30  1.0000E+30
   8   1.0000E+30  1.0000E+30  1.0000E+30  1.0000E+30  1.0000E+30  1.0000E+30  1.0000E+30  1.0000E+30  1.0000E+30  1.0000E+30
       1.0000E+30  1.0000E+30  1.0000E+30  1.0000E+30  1.0000E+30  1.0000E+30  1.0000E+30  1.0000E+30  1.0000E+30  1.0000E+30
       1.0000E+30  1.0000E+30  1.0000E+30  1.0000E+30  1.0000E+30  1.0000E+30  1.0000E+30   372.5       372.5       372.5    
        372.5       372.5       372.5       372.5       372.5       372.5       372.5       372.5       372.5       372.5    
       1.0000E+30  1.0000E+30  1.0000E+30  1.0000E+30  1.0000E+30  1.0000E+30  1.0000E+30  1.0000E+30  1.0000E+30  1.0000E+30
   9   1.0000E+30  1.0000E+30  1.0000E+30  1.0000E+30  1.0000E+30  1.0000E+30  1.0000E+30  1.0000E+30  1.0000E+30  1.0000E+30
       1.0000E+30  1.0000E+30  1.0000E+30  1.0000E+30  1.0000E+30  1.0000E+30  1.0000E+30  1.0000E+30  1.0000E+30  1.0000E+30
       1.0000E+30  1.0000E+30  1.0000E+30  1.0000E+30  1.0000E+30  1.0000E+30  1.0000E+30   372.5       372.5       372.5    
        372.5       372.5       372.5       372.5       372.5       372.5       372.5       372.5       372.5       372.5    
       1.0000E+30  1.0000E+30  1.0000E+30  1.0000E+30  1.0000E+30  1.0000E+30  1.0000E+30  1.0000E+30  1.0000E+30  1.0000E+30
[...]
        372.5       372.5       372.5       372.5       372.5       372.5       372.5       372.5       372.5       372.5    
        372.5       372.5       372.5       372.5       372.5       372.5       372.5       372.5       372.5       372.5    
        372.5       372.5       372.5       372.5       372.5       372.5       372.5       372.5       372.5       372.5    
        372.5       372.5       372.5      1.0000E+30  1.0000E+30  1.0000E+30  1.0000E+30  1.0000E+30  1.0000E+30  1.0000E+30
  23   1.0000E+30  1.0000E+30  1.0000E+30   372.5       372.5       372.5       372.5       372.5       372.5       372.5    
        372.5       372.5       372.5       372.5       372.5       372.5       372.5       372.5       372.5       372.5    
        372.5       372.5       372.5       372.5       372.5       372.5       372.5       372.5       372.5       372.5    
        372.5       372.5       372.5       372.5       372.5       372.5       372.5       372.5       372.5       372.5    
        372.5       372.5       372.5       372.5      1.0000E+30  1.0000E+30  1.0000E+30  1.0000E+30  1.0000E+30  1.0000E+30
  24   1.0000E+30  1.0000E+30  1.0000E+30   372.5       372.5       372.5       372.5       372.5       372.5       372.5    
        372.5       372.5       372.5       372.5       372.5       372.5       372.5       372.5       372.5       372.5    
        372.5       372.5       372.5       372.5       372.5       372.5       372.5       372.5       372.5       372.5    
        372.5       372.5       372.5       372.5       372.5       372.5       372.5       372.5       372.5       372.5    
        372.5       372.5       372.5       372.5      1.0000E+30  1.0000E+30  1.0000E+30  1.0000E+30  1.0000E+30  1.0000E+30
  25   1.0000E+30  1.0000E+30  1.0000E+30   372.5       372.5       372.5       372.5       372.5       372.5       372.5    
        372.5       372.5       372.5       372.5       372.5       372.5       372.5       372.5       372.5       372.5    
        372.5       372.5       372.5       372.5       372.5       372.5       372.5       372.5       372.5       372.5    
        372.5       372.5       372.5       372.5       372.5       372.5       372.5       372.5       372.5       372.5    
        372.5       372.5       372.5       372.5       372.5      1.0000E+30  1.0000E+30  1.0000E+30  1.0000E+30  1.0000E+30
  26   1.0000E+30  1.0000E+30  1.0000E+30   372.5       372.5       372.5       372.5       372.5       372.5       372.5    
        372.5       372.5       372.5       372.5       372.5       372.5       372.5       372.5       372.5       372.5    
        372.5       372.5       372.5       372.5       372.5       372.5       372.5       372.5       372.5       372.5    
        372.5       372.5       372.5       372.5       372.5       372.5       372.5       372.5       372.5       372.5    
        372.5       372.5       372.5       372.5       372.5      1.0000E+30  1.0000E+30  1.0000E+30  1.0000E+30  1.0000E+30
  27   1.0000E+30  1.0000E+30  1.0000E+30   372.5       372.5       372.5       372.5       372.5       372.5       372.5    
        372.5       372.5       372.5       372.5       372.5       372.5       372.5       372.5       372.5       372.5    
        372.5       372.5       372.5       372.5       372.5       372.5       372.5       372.5       372.5       372.5    
        372.5       372.5       372.5       372.5       372.5       372.5       372.5       372.5       372.5       372.5    
        372.5       372.5       372.5       372.5       372.5       372.5      1.0000E+30  1.0000E+30  1.0000E+30  1.0000E+30
  28   1.0000E+30  1.0000E+30  1.0000E+30   372.5       372.5       372.5       372.5       372.5       372.5       372.5    
        372.5       372.5       372.5       372.5       372.5       372.5       372.5       372.5       372.5       372.5    
        372.5       372.5       372.5       372.5       372.5       372.5       372.5       372.5       372.5       372.5    
        372.5       372.5       372.5       372.5       372.5       372.5       372.5       372.5       372.5       372.5    
        372.5       372.5       372.5       372.5       372.5       372.5      1.0000E+30  1.0000E+30  1.0000E+30  1.0000E+30
  29   1.0000E+30  1.0000E+30   372.5       372.5       372.5       372.5       372.5       372.5       372.5       372.5    
        372.5       372.5       372.5       372.5       372.5       372.5       372.5       372.5       372.5       372.5    
        372.5       372.5       372.5       372.5       372.5       372.5       372.5       372.5       372.5       372.5    
        372.5       372.5       372.5       372.5       372.5       372.5       372.5       372.5       372.5       372.5    
        372.5       372.5       372.5       372.5       372.5       372.5       372.5      1.0000E+30  1.0000E+30  1.0000E+30
  30   1.0000E+30  1.0000E+30  1.0000E+30  1.0000E+30  1.0000E+30   372.5       372.5       372.5       372.5       372.5    
        372.5       372.5       372.5       372.5       372.5       372.5       372.5       372.5       372.5       372.5    
        372.5       372.5       372.5       372.5       372.5       372.5       372.5       372.5       372.5       372.5    
        372.5       372.5       372.5       372.5       372.5       372.5       372.5       372.5       372.5       372.5    
        372.5       372.5       372.5       372.5       372.5       372.5       372.5      1.0000E+30  1.0000E+30  1.0000E+30
  31   1.0000E+30  1.0000E+30  1.0000E+30  1.0000E+30  1.0000E+30  1.0000E+30  1.0000E+30   372.5       372.5       372.5    
        372.5       372.5       372.5       372.5       372.5       372.5       372.5       372.5       372.5       372.5    
        372.5       372.5       372.5       372.5       372.5       372.5       372.5       372.5       372.5       372.5    
        372.5       372.5       372.5       372.5       372.5       372.5       372.5       372.5       372.5       372.5    
        372.5       372.5       372.5       372.5       372.5       372.5       372.5       372.5      1.0000E+30  1.0000E+30
  32   1.0000E+30  1.0000E+30  1.0000E+30  1.0000E+30  1.0000E+30  1.0000E+30  1.0000E+30   372.5       372.5       372.5    
        372.5       372.5       372.5       372.5       372.5       372.5       372.5       372.5       372.5       372.5    
        372.5       372.5       372.5       372.5       372.5       372.5       372.5       372.5       372.5       372.5    
        372.5       372.5       372.5       372.5       372.5       372.5       372.5       372.5       372.5       372.5    
        372.5       372.5       372.5       372.5       372.5       372.5       372.5       372.5       372.5      1.0000E+30
  33   1.0000E+30  1.0000E+30  1.0000E+30  1.0000E+30  1.0000E+30  1.0000E+30  1.0000E+30  1.0000E+30  1.0000E+30  1.0000E+30
        372.5       372.5       372.5       372.5       372.5       372.5       372.5       372.5       372.5       372.5    
        372.5       372.5       372.5       372.5       372.5       372.5       372.5       372.5       372.5       372.5    
        372.5       372.5       372.5       372.5       372.5       372.5       372.5       372.5       372.5       372.5    
        372.5       372.5       372.5       372.5       372.5       372.5       372.5       372.5       372.5      1.0000E+30
  34   1.0000E+30  1.0000E+30  1.0000E+30  1.0000E+30  1.0000E+30  1.0000E+30  1.0000E+30  1.0000E+30  1.0000E+30  1.0000E+30
       1.0000E+30  1.0000E+30   372.5       372.5       372.5       372.5       372.5       372.5       372.5       372.5    
        372.5       372.5       372.5       372.5       372.5       372.5       372.5       372.5       372.5       372.5    
        372.5       372.5       372.5       372.5       372.5       372.5       372.5       372.5       372.5       372.5    
        372.5       372.5       372.5       372.5       372.5       372.5       372.5       372.5       372.5      1.0000E+30
  35   1.0000E+30  1.0000E+30  1.0000E+30  1.0000E+30  1.0000E+30  1.0000E+30  1.0000E+30  1.0000E+30  1.0000E+30  1.0000E+30
       1.0000E+30  1.0000E+30   372.5       372.5       372.5       372.5       372.5       372.5       372.5       372.5    
        372.5       372.5       372.5       372.5       372.5       372.5       372.5       372.5       372.5       372.5    
        372.5       372.5       372.5       372.5       372.5       372.5       372.5       372.5       372.5       372.5    
        372.5       372.5       372.5       372.5       372.5       372.5       372.5       372.5       372.5      1.0000E+30
  36   1.0000E+30  1.0000E+30  1.0000E+30  1.0000E+30  1.0000E+30  1.0000E+30  1.0000E+30  1.0000E+30  1.0000E+30  1.0000E+30
       1.0000E+30  1.0000E+30  1.0000E+30   372.5       372.5       372.5       372.5       372.5       372.5       372.5    
        372.5       372.5       372.5       372.5       372.5       372.5       372.5       372.5       372.5       372.5    
        372.5       372.5       372.5       372.5       372.5       372.5       372.5       372.5       372.5       372.5    
        372.5       372.5       372.5       372.5       372.5       372.5       372.5       372.5       372.5      1.0000E+30
  37   1.0000E+30  1.0000E+30  1.0000E+30  1.0000E+30  1.0000E+30  1.0000E+30  1.0000E+30  1.0000E+30  1.0000E+30  1.0000E+30
       1.0000E+30  1.0000E+30  1.0000E+30   372.5       372.5       372.5       372.5       372.5       372.5       372.5    
        372.5       372.5       372.5       372.5       372.5       372.5       372.5       372.5       372.5       372.5    
        372.5       372.5       372.5       372.5       372.5       372.5       372.5       372.5       372.5       372.5    
        372.5       372.5       372.5       372.5       372.5       372.5       372.5       372.5       372.5      1.0000E+30
  38   1.0000E+30  1.0000E+30  1.0000E+30  1.0000E+30  1.0000E+30  1.0000E+30  1.0000E+30  1.0000E+30  1.0000E+30  1.0000E+30
       1.0000E+30  1.0000E+30  1.0000E+30   372.5       372.5       372.5       372.5       372.5       372.5       372.5    
        372.5       372.5       372.5       372.5       372.5       372.5       372.5       372.5       372.5       372.5    
        372.5       372.5       372.5       372.5       372.5       372.5       372.5       372.5       372.5       372.5    
        372.5       372.5       372.5       372.5       372.5       372.5       372.5       372.5       372.5      1.0000E+30
  39   1.0000E+30  1.0000E+30  1.0000E+30  1.0000E+30  1.0000E+30  1.0000E+30  1.0000E+30  1.0000E+30  1.0000E+30  1.0000E+30
       1.0000E+30  1.0000E+30  1.0000E+30   372.5       372.5       372.5       372.5       372.5       372.5       372.5    
        372.5       372.5       372.5       372.5       372.5       372.5       372.5       372.5       372.5       372.5    
        372.5       372.5       372.5       372.5       372.5       372.5       372.5       372.5       372.5       372.5    
        372.5       372.5       372.5       372.5       372.5       372.5       372.5       372.5       372.5      1.0000E+30
  40   1.0000E+30  1.0000E+30  1.0000E+30  1.0000E+30  1.0000E+30  1.0000E+30  1.0000E+30  1.0000E+30  1.0000E+30  1.0000E+30
       1.0000E+30  1.0000E+30  1.0000E+30  1.0000E+30  1.0000E+30   372.5       372.5       372.5       372.5       372.5    
        372.5       372.5       372.5       372.5       372.5       372.5       372.5       372.5       372.5       372.5    
        372.5       372.5       372.5       372.5       372.5       372.5       372.5       372.5       372.5      1.0000E+30
       1.0000E+30   372.5       372.5       372.5       372.5       372.5       372.5       372.5       372.5      1.0000E+30
  41   1.0000E+30  1.0000E+30  1.0000E+30  1.0000E+30  1.0000E+30  1.0000E+30  1.0000E+30  1.0000E+30  1.0000E+30  1.0000E+30
       1.0000E+30  1.0000E+30  1.0000E+30  1.0000E+30  1.0000E+30   372.5       372.5       372.5       372.5       372.5    
        372.5       372.5       372.5       372.5       372.5       372.5       372.5       372.5       372.5       372.5    
        372.5       372.5       372.5       372.5       372.5      1.0000E+30  1.0000E+30  1.0000E+30  1.0000E+30  1.0000E+30
       1.0000E+30  1.0000E+30  1.0000E+30   372.5       372.5       372.5       372.5       372.5       372.5      1.0000E+30
  42   1.0000E+30  1.0000E+30  1.0000E+30  1.0000E+30  1.0000E+30  1.0000E+30  1.0000E+30  1.0000E+30  1.0000E+30  1.0000E+30
       1.0000E+30  1.0000E+30  1.0000E+30  1.0000E+30  1.0000E+30  1.0000E+30   372.5       372.5       372.5       372.5    
        372.5       372.5       372.5       372.5       372.5       372.5       372.5       372.5       372.5       372.5    
        372.5       372.5       372.5       372.5      1.0000E+30  1.0000E+30  1.0000E+30  1.0000E+30  1.0000E+30  1.0000E+30
       1.0000E+30  1.0000E+30  1.0000E+30  1.0000E+30  1.0000E+30  1.0000E+30  1.0000E+30  1.0000E+30  1.0000E+30  1.0000E+30
  43   1.0000E+30  1.0000E+30  1.0000E+30  1.0000E+30  1.0000E+30  1.0000E+30  1.0000E+30  1.0000E+30  1.0000E+30  1.0000E+30
       1.0000E+30  1.0000E+30  1.0000E+30  1.0000E+30  1.0000E+30   372.5       372.5       372.5       372.5       372.5    
        372.5       372.5       372.5       372.5       372.5       372.5       372.5       372.5       372.5       372.5    
        372.5       372.5       372.5       372.5      1.0000E+30  1.0000E+30  1.0000E+30  1.0000E+30  1.0000E+30  1.0000E+30
       1.0000E+30  1.0000E+30  1.0000E+30  1.0000E+30  1.0000E+30  1.0000E+30  1.0000E+30  1.0000E+30  1.0000E+30  1.0000E+30
  44   1.0000E+30  1.0000E+30  1.0000E+30  1.0000E+30  1.0000E+30  1.0000E+30  1.0000E+30  1.0000E+30  1.0000E+30  1.0000E+30
       1.0000E+30  1.0000E+30  1.0000E+30  1.0000E+30  1.0000E+30   372.5       372.5       372.5       372.5       372.5    
        372.5       372.5       372.5       372.5       372.5       372.5       372.5       372.5       372.5       372.5    
        372.5       372.5       372.5      1.0000E+30  1.0000E+30  1.0000E+30  1.0000E+30  1.0000E+30  1.0000E+30  1.0000E+30
       1.0000E+30  1.0000E+30  1.0000E+30  1.0000E+30  1.0000E+30  1.0000E+30  1.0000E+30  1.0000E+30  1.0000E+30  1.0000E+30
  45   1.0000E+30  1.0000E+30  1.0000E+30  1.0000E+30  1.0000E+30  1.0000E+30  1.0000E+30  1.0000E+30  1.0000E+30  1.0000E+30
       1.0000E+30  1.0000E+30  1.0000E+30  1.0000E+30  1.0000E+30  1.0000E+30   372.5       372.5       372.5       372.5    
        372.5       372.5       372.5       372.5       372.5       372.5       372.5       372.5       372.5       372.5    
        372.5       372.5       372.5      1.0000E+30  1.0000E+30  1.0000E+30  1.0000E+30  1.0000E+30  1.0000E+30  1.0000E+30
       1.0000E+30  1.0000E+30  1.0000E+30  1.0000E+30  1.0000E+30  1.0000E+30  1.0000E+30  1.0000E+30  1.0000E+30  1.0000E+30
  46   1.0000E+30  1.0000E+30  1.0000E+30  1.0000E+30  1.0000E+30  1.0000E+30  1.0000E+30  1.0000E+30  1.0000E+30  1.0000E+30
       1.0000E+30  1.0000E+30  1.0000E+30  1.0000E+30  1.0000E+30  1.0000E+30   372.5       372.5       372.5      1.0000E+30
       1.0000E+30   372.5       372.5       372.5       372.5       372.5       372.5       372.5       372.5       372.5    
        372.5       372.5       372.5      1.0000E+30  1.0000E+30  1.0000E+30  1.0000E+30  1.0000E+30  1.0000E+30  1.0000E+30
       1.0000E+30  1.0000E+30  1.0000E+30  1.0000E+30  1.0000E+30  1.0000E+30  1.0000E+30  1.0000E+30  1.0000E+30  1.0000E+30
  47   1.0000E+30  1.0000E+30  1.0000E+30  1.0000E+30  1.0000E+30  1.0000E+30  1.0000E+30  1.0000E+30  1.0000E+30  1.0000E+30
       1.0000E+30  1.0000E+30  1.0000E+30  1.0000E+30  1.0000E+30  1.0000E+30  1.0000E+30  1.0000E+30  1.0000E+30  1.0000E+30
       1.0000E+30   372.5       372.5       372.5       372.5       372.5       372.5       372.5       372.5       372.5    
        372.5       372.5       372.5      1.0000E+30  1.0000E+30  1.0000E+30  1.0000E+30  1.0000E+30  1.0000E+30  1.0000E+30
       1.0000E+30  1.0000E+30  1.0000E+30  1.0000E+30  1.0000E+30  1.0000E+30  1.0000E+30  1.0000E+30  1.0000E+30  1.0000E+30
  48   1.0000E+30  1.0000E+30  1.0000E+30  1.0000E+30  1.0000E+30  1.0000E+30  1.0000E+30  1.0000E+30  1.0000E+30  1.0000E+30
       1.0000E+30  1.0000E+30  1.0000E+30  1.0000E+30  1.0000E+30  1.0000E+30  1.0000E+30  1.0000E+30  1.0000E+30  1.0000E+30
       1.0000E+30  1.0000E+30   372.5       372.5       372.5       372.5       372.5       372.5       372.5       372.5    
        372.5       372.5       372.5      1.0000E+30  1.0000E+30  1.0000E+30  1.0000E+30  1.0000E+30  1.0000E+30  1.0000E+30
       1.0000E+30  1.0000E+30  1.0000E+30  1.0000E+30  1.0000E+30  1.0000E+30  1.0000E+30  1.0000E+30  1.0000E+30  1.0000E+30
  49   1.0000E+30  1.0000E+30  1.0000E+30  1.0000E+30  1.0000E+30  1.0000E+30  1.0000E+30  1.0000E+30  1.0000E+30  1.0000E+30
       1.0000E+30  1.0000E+30  1.0000E+30  1.0000E+30  1.0000E+30  1.0000E+30  1.0000E+30  1.0000E+30  1.0000E+30  1.0000E+30
       1.0000E+30  1.0000E+30  1.0000E+30   372.5       372.5       372.5       372.5       372.5       372.5       372.5    
        372.5       372.5      1.0000E+30  1.0000E+30  1.0000E+30  1.0000E+30  1.0000E+30  1.0000E+30  1.0000E+30  1.0000E+30
       1.0000E+30  1.0000E+30  1.0000E+30  1.0000E+30  1.0000E+30  1.0000E+30  1.0000E+30  1.0000E+30  1.0000E+30  1.0000E+30
  50   1.0000E+30  1.0000E+30  1.0000E+30  1.0000E+30  1.0000E+30  1.0000E+30  1.0000E+30  1.0000E+30  1.0000E+30  1.0000E+30
       1.0000E+30  1.0000E+30  1.0000E+30  1.0000E+30  1.0000E+30  1.0000E+30  1.0000E+30  1.0000E+30  1.0000E+30  1.0000E+30
       1.0000E+30  1.0000E+30  1.0000E+30  1.0000E+30  1.0000E+30  1.0000E+30  1.0000E+30  1.0000E+30  1.0000E+30  1.0000E+30
       1.0000E+30  1.0000E+30  1.0000E+30  1.0000E+30  1.0000E+30  1.0000E+30  1.0000E+30  1.0000E+30  1.0000E+30  1.0000E+30
       1.0000E+30  1.0000E+30  1.0000E+30  1.0000E+30  1.0000E+30  1.0000E+30  1.0000E+30  1.0000E+30  1.0000E+30  1.0000E+30

 HEAD WILL BE SAVED ON UNIT 1013 AT END OF TIME STEP    1, STRESS PERIOD    1


  VOLUME BUDGET FOR ENTIRE MODEL AT END OF TIME STEP    1, STRESS PERIOD   1
  ---------------------------------------------------------------------------------------------------

     CUMULATIVE VOLUME      L**3       RATES FOR THIS TIME STEP      L**3/T          PACKAGE NAME    
     ------------------                 ------------------------                     ----------------

           IN:                                      IN:
           ---                                      ---
                 DRN =           0.0000                   DRN =           0.0000     DRN_0                            

            TOTAL IN =           0.0000              TOTAL IN =           0.0000

          OUT:                                     OUT:
          ----                                     ----
                 DRN =       1.7020E-03                   DRN =       1.7020E-03     DRN_0                            

           TOTAL OUT =       1.7020E-03             TOTAL OUT =       1.7020E-03

            IN - OUT =      -1.7020E-03              IN - OUT =      -1.7020E-03

 PERCENT DISCREPANCY =        -200.00     PERCENT DISCREPANCY =        -200.00




         TIME SUMMARY AT END OF TIME STEP    1 IN STRESS PERIOD    1
                    SECONDS     MINUTES      HOURS       DAYS        YEARS
                    -----------------------------------------------------------
   TIME STEP LENGTH  86400.      1440.0      24.000      1.0000     2.73785E-03
 STRESS PERIOD TIME  86400.      1440.0      24.000      1.0000     2.73785E-03
         TOTAL TIME  86400.      1440.0      24.000      1.0000     2.73785E-03


end timestep

