                                   MODFLOW 6
                U.S. GEOLOGICAL SURVEY MODULAR HYDROLOGIC MODEL
                  VERSION 6.6.0.dev0 (preliminary) 10/18/2024
                               ***DEVELOP MODE***

   MODFLOW 6 compiled Oct 18 2024 02:59:03 with Intel(R) Fortran Intel(R) 64
   Compiler Classic for applications running on Intel(R) 64, Version 2021.7.0
                             Build 20220726_000000

This software is preliminary or provisional and is subject to 
revision. It is being provided to meet the need for timely best 
science. The software has not received final approval by the U.S. 
Geological Survey (USGS). No warranty, expressed or implied, is made 
by the USGS or the U.S. Government as to the functionality of the 
software and related material nor shall the fact of release 
constitute any such warranty. The software is provided on the 
condition that neither the USGS nor the U.S. Government shall be held 
liable for any damages resulting from the authorized or unauthorized 
use of the software.


As a work of the United States Government, this USGS product is 
in the public domain within the United States. You can copy, 
modify, distribute, and perform the work, even for commercial 
purposes, all without asking permission. Additionally, USGS 
waives copyright and related rights in the work worldwide 
through CC0 1.0 Universal Public Domain Dedication 
(https://creativecommons.org/publicdomain/zero/1.0/).

The following GNU Lesser General Public License (LGPL) libraries
are used in this USGS product:

    SPARSKIT version 2.0
      ilut, luson, and qsplit 
      (https://www-users.cse.umn.edu/~saad/software/SPARSKIT/)

    RCM - Reverse Cuthill McKee Ordering
      (https://people.math.sc.edu/Burkardt/f_src/rcm/rcm.html)

    BLAS - Basic Linear Algebra Subprograms Level 1
      (https://people.math.sc.edu/Burkardt/f_src/blas1_d/blas1_d.html)

    SPARSEKIT - Sparse Matrix Utility Package
      amux, dperm, dvperm, rperm, and cperm
      (https://people.sc.fsu.edu/~jburkardt/f77_src/sparsekit/sparsekit.html)

The following BSD-3 License libraries are used in this USGS product:

    Modern Fortran DAG Library
      Copyright (c) 2018, Jacob Williams
      All rights reserved.
      (https://github.com/jacobwilliams/daglib)

MODFLOW 6 compiler options: -Isrc/libmf6core.a.p -Isrc -I../src
-Isrc/libmf6_external.a.p -D_FILE_OFFSET_BITS=64 -warn general -warn
truncated_source -stand=f08 -g -traceback -O2 -fpe0 -no-heap-arrays
-traceback -diag-disable:7416 -diag-disable:7025 -diag-disable:5268 -fPIC
-module src/libmf6core.a.p
-gen-dep=src/libmf6core.a.p/Utilities_compilerversion.F90.o
-gen-depformat=make -o src/libmf6core.a.p/Utilities_compilerversion.F90.o -c

System command used to initiate simulation:
/users/1/souce015/.local/share/flopy/bin/mf6

MODFLOW was compiled using uniform precision.

Real Variables
  KIND: 8
  TINY (smallest non-zero value):    2.225074-308
  HUGE (largest value):    1.797693+308
  PRECISION: 15
  SIZE IN BITS: 64

Integer Variables
  KIND: 4
  HUGE (largest value): 2147483647
  SIZE IN BITS: 32

Long Integer Variables
  KIND: 8
  HUGE (largest value): 9223372036854775807
  SIZE IN BITS: 64

Logical Variables
  KIND: 4
  SIZE IN BITS: 32
 

 OPENED mfsim.nam
 FILE TYPE:NAM6               UNIT 1001   STATUS:OLD                 
 FORMAT:FORMATTED              ACCESS:SEQUENTIAL          
 ACTION:READ                

 # File generated by Flopy version 3.8.2 on 11/07/2024 at 18:43:43.

 OPENED EPM_wsgrid.tdis
 FILE TYPE:TDIS6              UNIT 1002   STATUS:OLD                 
 FORMAT:FORMATTED              ACCESS:SEQUENTIAL          
 ACTION:READ                

 # File generated by Flopy version 3.8.2 on 11/07/2024 at 18:43:43.

 OPENED EPM_wsgrid.nam
 FILE TYPE:GWF6               UNIT 1003   STATUS:OLD                 
 FORMAT:FORMATTED              ACCESS:SEQUENTIAL          
 ACTION:READ                

 # File generated by Flopy version 3.8.2 on 11/07/2024 at 18:43:43.

 OPENED EPM_wsgrid.dis
 FILE TYPE:DIS6               UNIT 1004   STATUS:OLD                 
 FORMAT:FORMATTED              ACCESS:SEQUENTIAL          
 ACTION:READ                

 # File generated by Flopy version 3.8.2 on 11/07/2024 at 18:43:43.

 OPENED EPM_wsgrid.npf
 FILE TYPE:NPF6               UNIT 1005   STATUS:OLD                 
 FORMAT:FORMATTED              ACCESS:SEQUENTIAL          
 ACTION:READ                

 # File generated by Flopy version 3.8.2 on 11/07/2024 at 18:43:43.

 OPENED EPM_wsgrid.ic
 FILE TYPE:IC6                UNIT 1006   STATUS:OLD                 
 FORMAT:FORMATTED              ACCESS:SEQUENTIAL          
 ACTION:READ                

 # File generated by Flopy version 3.8.2 on 11/07/2024 at 18:43:43.

 OPENED EPM_wsgrid.oc
 FILE TYPE:OC6       UNIT 1007   STATUS:OLD                 
 FORMAT:FORMATTED              ACCESS:SEQUENTIAL          
 ACTION:READ                


 OPENED EPM_wsgrid.rcha
 FILE TYPE:RCH6               UNIT 1009   STATUS:OLD                 
 FORMAT:FORMATTED              ACCESS:SEQUENTIAL          
 ACTION:READ                

 # File generated by Flopy version 3.8.2 on 11/07/2024 at 18:43:43.

 OPENED EPM_wsgrid.chd
 FILE TYPE:CHD6               UNIT 1010   STATUS:OLD                 
 FORMAT:FORMATTED              ACCESS:SEQUENTIAL          
 ACTION:READ                

 # File generated by Flopy version 3.8.2 on 11/07/2024 at 18:43:43.

 READING SIMULATION OPTIONS
    MAXIMUM NUMBER OF ERRORS THAT WILL BE STORED IS 1000
 END OF SIMULATION OPTIONS

 READING SIMULATION TIMING

 TDIS -- TEMPORAL DISCRETIZATION PACKAGE,
 VERSION 1 : 11/13/2014 - INPUT READ FROM MEMPATH: __INPUT__/SIM/TDIS                                
 PROCESSING TDIS OPTIONS
    SIMULATION TIME UNIT IS UNDEFINED
 END OF TDIS OPTIONS
 PROCESSING TDIS DIMENSIONS
    1 STRESS PERIOD(S) IN SIMULATION
 END OF TDIS DIMENSIONS
 PROCESSING TDIS PERIODDATA


 STRESS PERIOD     LENGTH       TIME STEPS     MULTIPLIER FOR DELT
 ----------------------------------------------------------------------------
        1         1.000000          1                    1.000
 END OF TDIS PERIODDATA
 END OF SIMULATION TIMING

 READING SIMULATION MODELS
    GWF6 model 1 will be created
 END OF SIMULATION MODELS

 READING SIMULATION EXCHANGES
 END OF SIMULATION EXCHANGES

 READING SOLUTIONGROUP

 Creating solution: SLN_1           

 OPENED EPM_wsgrid.ims
 FILE TYPE:IMS   UNIT 1012   STATUS:OLD                 
 FORMAT:FORMATTED              ACCESS:SEQUENTIAL          
 ACTION:READ                

 END OF SOLUTIONGROUP

PROCESSING MODEL CONNECTIONS

 IMS -- ITERATIVE MODEL SOLUTION PACKAGE, VERSION 6, 4/28/2017
         INPUT READ FROM UNIT 1012
 # File generated by Flopy version 3.8.2 on 11/07/2024 at 18:43:43.

 PROCESSING IMS OPTIONS
 END OF IMS OPTIONS
 ***UNDER-RELAXATION WILL NOT BE USED***
 

 PROCESSING LINEAR DATA
 END OF LINEAR DATA
 ***IMS LINEAR SOLVER WILL BE USED***

 IMSLINEAR -- UNSTRUCTURED LINEAR SOLUTION PACKAGE, VERSION 8, 04/28/2017
 A symmetric matrix will be solved

 OUTER ITERATION CONVERGENCE CRITERION    (DVCLOSE) =    0.100000E-02
 MAXIMUM NUMBER OF OUTER ITERATIONS        (MXITER) = 25
 SOLVER PRINTOUT INDEX                     (IPRIMS) = 2
 NONLINEAR ITERATION METHOD            (NONLINMETH) = 0
 LINEAR SOLUTION METHOD                   (LINMETH) = 1

       SOLUTION BY THE        CONJUGATE-GRADIENT       METHOD
 ------------------------------------------------------------------
 MAXIMUM OF 25 CALLS OF SOLUTION ROUTINE
 MAXIMUM OF 100 INTERNAL ITERATIONS PER CALL TO SOLUTION ROUTINE
 LINEAR ACCELERATION METHOD            = CG        
 MATRIX PRECONDITIONING TYPE           = INCOMPLETE LU       
 MATRIX SCALING APPROACH               = NO SCALING          
 MATRIX REORDERING APPROACH            = ORIGINAL ORDERING        
 NUMBER OF ORTHOGONALIZATIONS          = 0
 HEAD CHANGE CRITERION FOR CLOSURE     =    0.10000E-02
 RESIDUAL CHANGE CRITERION FOR CLOSURE =    0.10000E+00
 RESIDUAL CONVERGENCE OPTION           = 0
 RESIDUAL CONVERGENCE NORM             = INFINITY NORM   
 RELAXATION FACTOR                     =    0.00000E+00



 
    Solving:  Stress period:     1    Time step:     1
 
1
 STRESS PERIOD NO. 1, LENGTH =   1.000000    
 ------------------------------------------
 NUMBER OF TIME STEPS = 1
 MULTIPLIER FOR DELT =     1.000
 INITIAL TIME STEP SIZE =   1.000000    

 SLN_1 OUTER ITERATION SUMMARY
 ----------------------------------------------------------------------------------------------------------
                                OUTER      INNER                    STEP   MAXIMUM CHANGE MODEL-(CELLID) OR
 OUTER ITERATION STEP       ITERATION  ITERATION  MAXIMUM CHANGE SUCCESS             MODEL-PACKAGE-(NUMBER)
 ----------------------------------------------------------------------------------------------------------
 Model                              1         68      -302.23768                            1_GWF-(1,52,91)
 Model                              2         31       2.0500543                            1_GWF-(1,53,54)
 Model                              3         14 -2.13502913E-02                            1_GWF-(1,50,50)
 Model                              4          1  2.15345989E-04       *                    1_GWF-(1,43,45)
 ----------------------------------------------------------------------------------------------------------


 4 CALLS TO NUMERICAL SOLUTION IN TIME STEP 1 STRESS PERIOD 1
 114 TOTAL ITERATIONS

 SLN_1 INNER ITERATION SUMMARY
 --------------------------------------------------------------------------------------------------------------------------------------
      TOTAL      OUTER      INNER                                                            MAXIMUM                                   
  ITERATION  ITERATION  ITERATION  MAXIMUM CHANGE      MAXIMUM CHANGE MODEL-(CELLID)        RESIDUAL    MAXIMUM RESIDUAL MODEL-(CELLID)
 --------------------------------------------------------------------------------------------------------------------------------------
          1          1          1      -337.53879                     1_GWF-(1,4,79)       60732.168                     1_GWF-(1,28,3)
          2          1          2      -188.32959                     1_GWF-(1,28,4)      -48571.507                     1_GWF-(1,28,3)
          3          1          3      -116.44995                    1_GWF-(1,89,36)       25679.401                     1_GWF-(1,4,79)
          4          1          4      -108.97306                     1_GWF-(1,33,7)      -22914.346                     1_GWF-(1,4,79)
          5          1          5      -95.212887                    1_GWF-(1,75,93)      -16098.899                     1_GWF-(1,33,4)
          6          1          6      -94.232051                    1_GWF-(1,72,91)       13901.801                     1_GWF-(1,28,6)
          7          1          7      -82.623189                    1_GWF-(1,70,89)      -11993.462                     1_GWF-(1,4,79)
          8          1          8      -72.008172                    1_GWF-(1,67,85)       11257.315                     1_GWF-(1,28,4)
          9          1          9      -66.540217                    1_GWF-(1,23,67)      -11731.155                     1_GWF-(1,28,4)
         10          1         10      -70.418571                    1_GWF-(1,41,21)       8154.9426                     1_GWF-(1,31,6)
         11          1         11      -64.659321                    1_GWF-(1,43,24)       6614.3223                     1_GWF-(1,4,79)
         12          1         12      -56.882729                    1_GWF-(1,43,26)      -5091.3653                     1_GWF-(1,29,7)
         13          1         13      -47.104744                    1_GWF-(1,41,29)      -7144.0668                     1_GWF-(1,29,4)
         14          1         14      -44.789016                    1_GWF-(1,41,31)       6174.5882                     1_GWF-(1,29,4)
         15          1         15      -41.454304                    1_GWF-(1,36,58)       5191.6042                     1_GWF-(1,28,3)
         16          1         16      -45.674352                    1_GWF-(1,49,60)       5445.9227                    1_GWF-(1,83,70)
         17          1         17      -55.276004                    1_GWF-(1,57,56)      -7765.1976                    1_GWF-(1,83,70)
         18          1         18      -50.221119                    1_GWF-(1,55,56)       6741.2594                    1_GWF-(1,83,70)
         19          1         19      -37.072525                    1_GWF-(1,47,53)       6344.8084                    1_GWF-(1,82,71)
         20          1         20      -30.845398                    1_GWF-(1,50,50)      -5699.3288                    1_GWF-(1,82,71)
         21          1         21      -21.657893                    1_GWF-(1,49,50)      -4656.9468                    1_GWF-(1,83,70)
         22          1         22      -15.627298                    1_GWF-(1,47,46)       3762.6886                    1_GWF-(1,83,70)
         23          1         23      -10.870555                    1_GWF-(1,55,47)      -3308.2059                    1_GWF-(1,83,70)
         24          1         24      -9.6945788                    1_GWF-(1,61,47)      -2693.5233                    1_GWF-(1,82,71)
         25          1         25      -7.5674595                    1_GWF-(1,59,52)       1890.8023                    1_GWF-(1,82,71)
         26          1         26      -5.1604064                    1_GWF-(1,61,51)      -1079.1928                    1_GWF-(1,82,71)
         27          1         27      -3.8319551                    1_GWF-(1,82,46)      -725.45061                    1_GWF-(1,83,70)
         28          1         28      -3.0242325                    1_GWF-(1,81,43)       524.22039                    1_GWF-(1,83,70)
         29          1         29      -2.3729918                    1_GWF-(1,84,42)      -294.66002                    1_GWF-(1,83,70)
         30          1         30      -2.0983532                    1_GWF-(1,72,53)       334.97980                     1_GWF-(1,28,5)
         31          1         31      -2.2936087                    1_GWF-(1,74,51)      -253.75666                     1_GWF-(1,29,7)
         32          1         32      -1.8309887                    1_GWF-(1,76,50)      -235.82051                     1_GWF-(1,30,4)
         33          1         33      -1.5049596                    1_GWF-(1,80,55)      -175.36618                    1_GWF-(1,18,20)
         34          1         34      -1.1355432                    1_GWF-(1,81,54)       118.09531                    1_GWF-(1,81,97)
         35          1         35     -0.77880582                    1_GWF-(1,81,58)       111.31834                     1_GWF-(1,29,7)
         36          1         36     -0.54400179                    1_GWF-(1,85,58)       92.556734                     1_GWF-(1,30,4)
         37          1         37      0.38154509                    1_GWF-(1,26,57)      -56.305240                    1_GWF-(1,25,14)
         38          1         38      0.33562894                    1_GWF-(1,25,53)      -47.188776                    1_GWF-(1,26,18)
         39          1         39      0.34060595                    1_GWF-(1,37,42)       46.873658                    1_GWF-(1,24,15)
         40          1         40      0.27637261                    1_GWF-(1,33,46)      -37.819226                    1_GWF-(1,24,15)
         41          1         41      0.23564016                    1_GWF-(1,42,39)      -29.119614                    1_GWF-(1,27,17)
         42          1         42      0.17981062                    1_GWF-(1,36,38)      -23.967395                     1_GWF-(1,6,62)
         43          1         43      0.12633932                    1_GWF-(1,21,71)      -16.965634                    1_GWF-(1,24,15)
         44          1         44      0.11379847                    1_GWF-(1,19,70)      -12.574944                    1_GWF-(1,27,17)
         45          1         45 -8.09243582E-02                    1_GWF-(1,61,77)      -9.4229067                     1_GWF-(1,27,7)
         46          1         46 -7.52055675E-02                    1_GWF-(1,65,78)       10.154917                     1_GWF-(1,39,5)
         47          1         47 -6.85309199E-02                    1_GWF-(1,59,72)       6.6276649                    1_GWF-(1,81,96)
         48          1         48 -5.20223433E-02                    1_GWF-(1,59,70)      -6.9132202                    1_GWF-(1,26,14)
         49          1         49 -4.08273881E-02                    1_GWF-(1,62,69)      -5.5667406                    1_GWF-(1,66,95)
         50          1         50 -3.51244936E-02                    1_GWF-(1,65,69)      -4.6086304                     1_GWF-(1,31,4)
         51          1         51 -2.32693475E-02                    1_GWF-(1,68,70)       3.2989829                    1_GWF-(1,79,98)
         52          1         52 -2.09646698E-02                    1_GWF-(1,69,75)      -2.5475045                    1_GWF-(1,79,92)
         53          1         53 -1.44784447E-02                    1_GWF-(1,69,73)      -1.9730858                    1_GWF-(1,65,95)
         54          1         54  1.15015442E-02                    1_GWF-(1,69,44)       1.7933855                    1_GWF-(1,28,13)
         55          1         55 -9.43994183E-03                    1_GWF-(1,61,77)       1.2747558                     1_GWF-(1,30,5)
         56          1         56  7.60350843E-03                    1_GWF-(1,67,39)     -0.92307085                    1_GWF-(1,31,10)
         57          1         57 -6.42755266E-03                    1_GWF-(1,41,76)     -0.84406641                    1_GWF-(1,78,71)
         58          1         58 -8.25730324E-03                    1_GWF-(1,39,73)      0.88961844                    1_GWF-(1,30,11)
         59          1         59 -6.86684970E-03                    1_GWF-(1,23,64)      -1.0725450                     1_GWF-(1,30,5)
         60          1         60 -5.69674808E-03                    1_GWF-(1,30,64)      0.69767957                     1_GWF-(1,30,5)
         61          1         61 -5.08947691E-03                    1_GWF-(1,34,64)     -0.55247594                    1_GWF-(1,28,13)
         62          1         62 -3.84551348E-03                    1_GWF-(1,36,64)      0.41211987                    1_GWF-(1,28,13)
         63          1         63 -2.48700827E-03                    1_GWF-(1,34,67)     -0.33937413                     1_GWF-(1,28,7)
         64          1         64 -1.44529920E-03                    1_GWF-(1,39,68)     -0.16496526                     1_GWF-(1,33,6)
         65          1         65  8.50138157E-04                    1_GWF-(1,49,38)     -0.13194025                     1_GWF-(1,9,58)
         66          1         66  6.04301539E-04                    1_GWF-(1,49,33)     -0.11025583                    1_GWF-(1,30,12)
         67          1         67 -5.20156391E-04                    1_GWF-(1,69,32)      0.10232744                     1_GWF-(1,28,7)
         68          1         68 -3.74408670E-04                    1_GWF-(1,85,36) -4.23673557E-02                    1_GWF-(1,20,17)
         69          2          1 -8.01071215E-02                    1_GWF-(1,20,51)      -14.534084                    1_GWF-(1,68,24)
         70          2          2      0.19679866                    1_GWF-(1,72,76)      -39.191436                    1_GWF-(1,81,72)
         71          2          3      0.39996720                    1_GWF-(1,59,83)       26.435506                    1_GWF-(1,81,72)
         72          2          4      0.20077678                    1_GWF-(1,67,27)      -17.137696                    1_GWF-(1,20,51)
         73          2          5      0.13682538                    1_GWF-(1,25,46)      -17.124797                    1_GWF-(1,82,71)
         74          2          6      0.17977870                    1_GWF-(1,50,33)       13.621806                    1_GWF-(1,82,71)
         75          2          7      0.19045849                    1_GWF-(1,48,33)      -12.708218                    1_GWF-(1,20,51)
         76          2          8      0.14709227                    1_GWF-(1,61,50)      -10.590050                    1_GWF-(1,82,71)
         77          2          9      0.13156882                    1_GWF-(1,59,51)      -7.8249138                    1_GWF-(1,82,70)
         78          2         10      0.14180713                    1_GWF-(1,57,52)      -4.9535395                    1_GWF-(1,49,84)
         79          2         11      0.11876505                    1_GWF-(1,55,53)       6.5050169                    1_GWF-(1,20,51)
         80          2         12  8.94546691E-02                    1_GWF-(1,55,57)      -3.8704030                    1_GWF-(1,82,70)
         81          2         13  7.03860059E-02                    1_GWF-(1,54,57)       2.1905220                    1_GWF-(1,16,56)
         82          2         14  4.93180347E-02                    1_GWF-(1,55,56)       2.2063345                    1_GWF-(1,20,51)
         83          2         15  3.70947089E-02                    1_GWF-(1,45,52)      -1.9499365                    1_GWF-(1,20,51)
         84          2         16  2.61032437E-02                    1_GWF-(1,47,52)      0.89211575                    1_GWF-(1,28,26)
         85          2         17  2.17866426E-02                    1_GWF-(1,51,48)     -0.70240106                    1_GWF-(1,58,80)
         86          2         18  1.79699508E-02                    1_GWF-(1,51,49)     -0.84654889                    1_GWF-(1,20,51)
         87          2         19  1.22740737E-02                    1_GWF-(1,74,54)      0.64189258                    1_GWF-(1,20,51)
         88          2         20  9.22985779E-03                    1_GWF-(1,73,50)      0.34223367                    1_GWF-(1,58,34)
         89          2         21 -7.99727475E-03                    1_GWF-(1,42,22)     -0.35712154                    1_GWF-(1,82,70)
         90          2         22 -7.56175491E-03                    1_GWF-(1,43,24)      0.36537668                    1_GWF-(1,20,51)
         91          2         23 -4.83120249E-03                    1_GWF-(1,45,26)      0.14765805                    1_GWF-(1,58,78)
         92          2         24 -3.13188625E-03                    1_GWF-(1,47,26)     -0.15994711                    1_GWF-(1,82,70)
         93          2         25  2.73370829E-03                    1_GWF-(1,69,63)      0.17241199                    1_GWF-(1,20,51)
         94          2         26  3.20949185E-03                    1_GWF-(1,72,58)     -0.15203173                    1_GWF-(1,20,51)
         95          2         27  3.01832680E-03                    1_GWF-(1,74,61) -9.93547276E-02                    1_GWF-(1,82,70)
         96          2         28  2.02246735E-03                    1_GWF-(1,74,59) -6.86669602E-02                    1_GWF-(1,62,73)
         97          2         29  1.39770496E-03                    1_GWF-(1,75,58) -7.56108685E-02                    1_GWF-(1,20,51)
         98          2         30  1.07926945E-03                    1_GWF-(1,53,74)  4.18215457E-02                    1_GWF-(1,20,51)
         99          2         31  8.55554673E-04                    1_GWF-(1,80,56) -3.57082289E-02                    1_GWF-(1,81,70)
        100          3          1  1.33426363E-03                    1_GWF-(1,81,70)      0.12223982                    1_GWF-(1,20,52)
        101          3          2 -1.94018381E-03                    1_GWF-(1,49,46)     -0.10164777                    1_GWF-(1,53,74)
        102          3          3 -2.36727136E-03                    1_GWF-(1,48,44)      0.10626366                    1_GWF-(1,78,72)
        103          3          4 -2.73834012E-03                    1_GWF-(1,49,40)     -0.13068694                    1_GWF-(1,82,70)
        104          3          5 -3.12807596E-03                    1_GWF-(1,52,43)  9.34187040E-02                    1_GWF-(1,92,66)
        105          3          6 -3.33859980E-03                    1_GWF-(1,54,54)     -0.11814753                    1_GWF-(1,21,51)
        106          3          7 -3.21035656E-03                    1_GWF-(1,54,48)     -0.10952295                    1_GWF-(1,82,70)
        107          3          8 -2.68546417E-03                    1_GWF-(1,54,50) -7.23248204E-02                    1_GWF-(1,23,43)
        108          3          9 -2.05661691E-03                    1_GWF-(1,34,49) -6.27685595E-02                    1_GWF-(1,21,51)
        109          3         10 -1.74578191E-03                    1_GWF-(1,37,49) -5.79292187E-02                    1_GWF-(1,82,70)
        110          3         11 -1.56843408E-03                    1_GWF-(1,39,48) -5.11605395E-02                    1_GWF-(1,23,43)
        111          3         12 -1.32204321E-03                    1_GWF-(1,60,74)  3.92025010E-02                    1_GWF-(1,78,60)
        112          3         13 -1.04999791E-03                    1_GWF-(1,59,71) -4.01940458E-02                    1_GWF-(1,81,71)
        113          3         14 -9.32441250E-04                    1_GWF-(1,57,69) -2.80854226E-02                    1_GWF-(1,77,61)
        114          4          1  2.15345989E-04                    1_GWF-(1,43,45)  1.68762920E-02                    1_GWF-(1,53,78)
 --------------------------------------------------------------------------------------------------------------------------------------




 Solution SLN_1 summary
 ----------------------------------------------------------------------
 Total formulate time:  .5210000000000010E-02 seconds
 Total solution time:   .1420500000000000E-01 seconds


 MEMORY MANAGER TOTAL STORAGE BY DATA TYPE, IN MEGABYTES
 -------------------------------
                    ALLOCATED   
 DATA TYPE           MEMORY     
 -------------------------------
 Character        7.66600000E-03
 Logical          4.40000000E-05
 Integer          1.5374360     
 Real             3.3620080     
 -------------------------------
 Total            4.9071540     
 Virtual          0.0000000     
 -------------------------------


 
 Run end date and time (yyyy/mm/dd hh:mm:ss): 2024/11/07 18:43:44
 Elapsed run time:  0.291 Seconds
 Normal termination of simulation.
